2c8fd8433150df1da9295743e4bc31bc2d771f94d070a8bf91dfddb5b3e82cb2
  rDOCK(R)          3D
libRbt.so/2013.1/901 2013/11/27
 32 35  0  0  0  0  0  0  0  0999 V2000
   22.6493  103.6710   11.7741 N   0  0  0  0  0  0
   31.3705  104.3092    9.1587 S   0  0  0  0  0  0
   22.2792  104.9540   12.0051 N   0  0  0  0  0  0
   21.5624  102.8143   11.9226 C   0  0  0  0  0  0
   24.0010  103.3748   11.4444 C   0  0  0  0  0  0
   20.4816  103.5844   12.2491 C   0  0  0  0  0  0
   24.9850  104.2423   11.7882 N   0  0  0  0  0  0
   31.2040  106.0804    8.9600 C   0  0  0  0  0  0
   20.9902  104.9096   12.2877 C   0  0  0  0  0  0
   26.2619  104.0048   11.4702 N   0  0  0  0  0  0
   30.4419  106.5977    7.8927 C   0  0  0  0  0  0
   32.7987  103.9699    9.2581 O   0  0  0  0  0  0
   30.5157  103.6548    8.1566 O   0  0  0  0  0  0
   30.6497  104.0270   10.7056 N   0  0  0  0  0  0
   26.6024  102.8853   10.7959 C   0  0  0  0  0  0
   30.3386  107.9934    7.7207 C   0  0  0  0  0  0
   24.3025  102.1735   10.7617 C   0  0  0  0  0  0
   31.8617  106.9439    9.8581 C   0  0  0  0  0  0
   31.0027  108.8671    8.6194 C   0  0  0  0  0  0
   31.7616  108.3381    9.6849 C   0  0  0  0  0  0
   27.9602  102.7552   10.4819 N   0  0  0  0  0  0
   25.6428  101.9187   10.4278 C   0  0  0  0  0  0
   30.3448  102.6584   11.1280 C   0  0  0  0  0  0
   21.6283  101.3290   11.7595 C   0  0  0  0  0  0
   20.2579  106.1808   12.5998 C   0  0  0  0  0  0
   28.8844  102.5538   11.5889 C   0  0  0  0  0  0
   29.5790  108.5246    6.6580 C   0  0  0  0  0  0
   30.9025  110.2629    8.4424 C   0  0  0  0  0  0
   29.4760  109.9195    6.4929 C   0  0  0  0  0  0
   30.1406  110.7874    7.3803 C   0  0  0  0  0  0
   31.0717  104.5931   11.4411 H   0  0  0  0  0  0
   28.1546  102.2193    9.6484 H   0  0  0  0  0  0
  1  3  1  0  0  0
  1  4  1  0  0  0
  1  5  1  0  0  0
  2 14  1  0  0  0
  2  8  1  0  0  0
  2 12  2  0  0  0
  2 13  2  0  0  0
  3  9  2  0  0  0
  4  6  2  0  0  0
  4 24  1  0  0  0
  5  7  1  0  0  0
  5 17  2  0  0  0
  6  9  1  0  0  0
  7 10  2  0  0  0
  8 11  1  0  0  0
  8 18  2  0  0  0
  9 25  1  0  0  0
 10 15  1  0  0  0
 11 16  2  0  0  0
 14 23  1  0  0  0
 14 31  1  0  0  0
 15 22  2  0  0  0
 15 21  1  0  0  0
 16 27  1  0  0  0
 16 19  1  0  0  0
 17 22  1  0  0  0
 18 20  1  0  0  0
 19 20  2  0  0  0
 19 28  1  0  0  0
 21 26  1  0  0  0
 21 32  1  0  0  0
 23 26  1  0  0  0
 27 29  2  0  0  0
 28 30  2  0  0  0
 29 30  1  0  0  0
M  END
>  <CHROM.0>
-60.37424809,-72.25045100,62.37513170,68.01158144,-53.16990202

>  <CHROM.1>
22.15326315,167.84592227,127.42085271,-128.19398283,67.73174040,-170.66869525
66.77292772,27.55598076,105.03383003,10.09580816,2.68135679,-0.23234610,2.82318565

>  <Name>
2c8fd8433150df1da9295743e4bc31bc2d771f94d070a8bf91dfddb5b3e82cb2

>  <RI>
2.78967e+07

>  <Rbt.Current_Directory>
/sysgen/workspace/users/bioinformatics/2111_DEHAAN_GASDERMIN/VS_SPECS

>  <Rbt.Executable>
rbdock ($Id: //depot/dev/client3/rdock/2013.1/src/exe/rbdock.cxx#4 $)

>  <Rbt.Library>
libRbt.so (2013.1, Build901 2013/11/27)

>  <Rbt.Parameter_File>
/home/sruizcarmona/SOFT/GADI/rdock/rDock_2020.GADI/data/scripts/dock.prm

>  <Rbt.Receptor>
gasd_rdock_free.prm

>  <SCORE>
-41.2648

>  <SCORE.INTER>
-36.4567

>  <SCORE.INTER.CONST>
1

>  <SCORE.INTER.POLAR>
-4.95334

>  <SCORE.INTER.REPUL>
0

>  <SCORE.INTER.ROT>
7

>  <SCORE.INTER.VDW>
-32.0154

>  <SCORE.INTER.norm>
-1.21522

>  <SCORE.INTRA>
2.58559

>  <SCORE.INTRA.DIHEDRAL>
-2.49484

>  <SCORE.INTRA.DIHEDRAL.0>
8.44347

>  <SCORE.INTRA.POLAR>
0

>  <SCORE.INTRA.POLAR.0>
0

>  <SCORE.INTRA.REPUL>
0.0169874

>  <SCORE.INTRA.REPUL.0>
0

>  <SCORE.INTRA.VDW>
3.74808

>  <SCORE.INTRA.VDW.0>
-5.20529

>  <SCORE.INTRA.norm>
0.0861865

>  <SCORE.RESTR>
0

>  <SCORE.RESTR.CAVITY>
0

>  <SCORE.RESTR.norm>
0

>  <SCORE.SYSTEM>
-7.39363

>  <SCORE.SYSTEM.CONST>
0

>  <SCORE.SYSTEM.DIHEDRAL>
1.29129

>  <SCORE.SYSTEM.POLAR>
-2.20415

>  <SCORE.SYSTEM.REPUL>
0.0511825

>  <SCORE.SYSTEM.VDW>
-0.801083

>  <SCORE.SYSTEM.norm>
-0.246454

>  <SCORE.heavy>
30

>  <SCORE.norm>
-1.37549

$$$$
93d9afad1980a3c1ec57b88f4aab57f2a6488745b2e84b069771066870150e16
  rDOCK(R)          3D
libRbt.so/2013.1/901 2013/11/27
 28 30  0  0  0  0  0  0  0  0999 V2000
   22.4040  103.7990   11.8213 N   0  0  0  0  0  0
   22.0985  105.1001   12.0396 N   0  0  0  0  0  0
   21.2792  102.9954   11.9623 C   0  0  0  0  0  0
   23.7361  103.4333   11.4971 C   0  0  0  0  0  0
   20.2368  103.8163   12.2906 C   0  0  0  0  0  0
   24.7612  104.2403   11.8645 N   0  0  0  0  0  0
   20.8081  105.1169   12.3233 C   0  0  0  0  0  0
   26.0262  103.9257   11.5663 N   0  0  0  0  0  0
   29.1570  106.4631    8.4635 C   0  0  0  0  0  0
   26.3134  102.7951   10.8835 C   0  0  0  0  0  0
   23.9706  102.2390   10.7799 C   0  0  0  0  0  0
   30.2349  106.3110    7.8897 O   0  0  0  0  0  0
   28.5791  105.5092    9.2083 N   0  0  0  0  0  0
   28.4040  107.7894    8.3387 C   0  0  0  0  0  0
   27.6758  102.5822   10.6338 N   0  0  0  0  0  0
   25.2989  101.9065   10.4636 C   0  0  0  0  0  0
   21.2810  101.5137   11.7624 C   0  0  0  0  0  0
   29.3717  108.9538    8.2034 C   0  0  0  0  0  0
   20.1352  106.4228   12.6264 C   0  0  0  0  0  0
   29.1511  104.1923    9.4453 C   0  0  0  0  0  0
   28.6687  103.6353   10.7930 C   0  0  0  0  0  0
   29.1543  109.9455    7.2228 C   0  0  0  0  0  0
   30.4904  109.0528    9.0586 C   0  0  0  0  0  0
   31.3864  110.1320    8.9303 C   0  0  0  0  0  0
   30.0508  111.0244    7.0952 C   0  0  0  0  0  0
   31.1671  111.1176    7.9486 C   0  0  0  0  0  0
   27.6947  105.7168    9.6485 H   0  0  0  0  0  0
   27.9923  101.6438   10.4359 H   0  0  0  0  0  0
  1  2  1  0  0  0
  1  3  1  0  0  0
  1  4  1  0  0  0
  2  7  2  0  0  0
  3  5  2  0  0  0
  3 17  1  0  0  0
  4  6  1  0  0  0
  4 11  2  0  0  0
  5  7  1  0  0  0
  6  8  2  0  0  0
  7 19  1  0  0  0
  8 10  1  0  0  0
  9 13  1  0  0  0
  9 12  2  0  0  0
  9 14  1  0  0  0
 10 16  2  0  0  0
 10 15  1  0  0  0
 11 16  1  0  0  0
 13 20  1  0  0  0
 13 27  1  0  0  0
 14 18  1  0  0  0
 15 21  1  0  0  0
 15 28  1  0  0  0
 18 22  2  0  0  0
 18 23  1  0  0  0
 20 21  1  0  0  0
 22 25  1  0  0  0
 23 24  2  0  0  0
 24 26  1  0  0  0
 25 26  2  0  0  0
M  END
>  <CHROM.0>
-57.25128174,51.21883800,-60.93977500,68.24881803,64.67910827

>  <CHROM.1>
23.75398405,-32.29758746,-14.60137372,152.15304034,134.07895503,-105.08580171
105.82668639,26.22915762,105.50110408,10.20388883,2.52986837,-0.32171648
2.96000779

>  <Name>
93d9afad1980a3c1ec57b88f4aab57f2a6488745b2e84b069771066870150e16

>  <RI>
3.68383e+07

>  <Rbt.Current_Directory>
/sysgen/workspace/users/bioinformatics/2111_DEHAAN_GASDERMIN/VS_SPECS

>  <Rbt.Executable>
rbdock ($Id: //depot/dev/client3/rdock/2013.1/src/exe/rbdock.cxx#4 $)

>  <Rbt.Library>
libRbt.so (2013.1, Build901 2013/11/27)

>  <Rbt.Parameter_File>
/home/sruizcarmona/SOFT/GADI/rdock/rDock_2020.GADI/data/scripts/dock.prm

>  <Rbt.Receptor>
gasd_rdock_free.prm

>  <SCORE>
-35.4842

>  <SCORE.INTER>
-34.8717

>  <SCORE.INTER.CONST>
1

>  <SCORE.INTER.POLAR>
-4.50688

>  <SCORE.INTER.REPUL>
0

>  <SCORE.INTER.ROT>
7

>  <SCORE.INTER.VDW>
-31.9483

>  <SCORE.INTER.norm>
-1.34122

>  <SCORE.INTRA>
2.89197

>  <SCORE.INTRA.DIHEDRAL>
2.82488

>  <SCORE.INTRA.DIHEDRAL.0>
10.6954

>  <SCORE.INTRA.POLAR>
0

>  <SCORE.INTRA.POLAR.0>
0

>  <SCORE.INTRA.REPUL>
0

>  <SCORE.INTRA.REPUL.0>
0

>  <SCORE.INTRA.VDW>
1.47953

>  <SCORE.INTRA.VDW.0>
-1.36269

>  <SCORE.INTRA.norm>
0.11123

>  <SCORE.RESTR>
0

>  <SCORE.RESTR.CAVITY>
0

>  <SCORE.RESTR.norm>
0

>  <SCORE.SYSTEM>
-3.50446

>  <SCORE.SYSTEM.CONST>
0

>  <SCORE.SYSTEM.DIHEDRAL>
0.861773

>  <SCORE.SYSTEM.POLAR>
-1.58252

>  <SCORE.SYSTEM.REPUL>
0.677729

>  <SCORE.SYSTEM.VDW>
-1.94341

>  <SCORE.SYSTEM.norm>
-0.134787

>  <SCORE.heavy>
26

>  <SCORE.norm>
-1.36478

$$$$
1b73c782eb1555ef4282e15e5d32a559a6723e947d59e1a3395519b3d300d981
  rDOCK(R)          3D
libRbt.so/2013.1/901 2013/11/27
 34 38  0  0  0  0  0  0  0  0999 V2000
   24.5472  102.8549   11.7192 C   0  0  0  0  0  0
   25.3790  102.1882   10.9015 N   0  0  0  0  0  0
   22.1455  103.3219   11.8855 N   0  0  0  0  0  0
   22.4740  104.6353   11.7257 N   0  0  0  0  0  0
   26.4517  102.9818   10.7603 C   0  0  0  0  0  0
   25.0710  104.0262   12.0944 N   0  0  0  0  0  0
   26.3106  104.1095   11.4687 N   0  0  0  0  0  0
   23.1988  102.3548   12.1478 C   0  0  0  0  0  0
   21.3872  105.3149   11.5148 N   0  0  0  0  0  0
   20.7845  103.1168   11.7529 C   0  0  0  0  0  0
   20.3213  104.4311   11.5208 C   0  0  0  0  0  0
   27.8510  102.5507    9.7688 S   0  0  0  0  0  0
   29.2286  104.9725    9.9163 C   0  0  0  0  0  0
   25.1623  100.9301   10.3013 C   0  0  0  0  0  0
   30.1854  105.7763   10.4174 N   0  0  0  0  0  0
   30.5304  107.1002   10.0312 C   0  0  0  0  0  0
   31.3574  107.8340   10.9080 C   0  0  0  0  0  0
   28.4407  105.2891    9.0259 O   0  0  0  0  0  0
   29.1208  103.5890   10.5540 C   0  0  0  0  0  0
   31.7550  109.1463   10.5865 C   0  0  0  0  0  0
   32.5421  109.8431   11.4398 F   0  0  0  0  0  0
   19.9159  102.0123   11.8088 C   0  0  0  0  0  0
   18.9335  104.6292   11.3431 C   0  0  0  0  0  0
   30.5243  109.0034    8.4887 C   0  0  0  0  0  0
   30.1253  107.6910    8.8090 C   0  0  0  0  0  0
   26.2363  100.0306   10.1401 C   0  0  0  0  0  0
   23.8642  100.5634    9.8885 C   0  0  0  0  0  0
   31.3360  109.7328    9.3778 C   0  0  0  0  0  0
   18.5356  102.2275   11.6291 C   0  0  0  0  0  0
   18.0475  103.5316   11.3976 C   0  0  0  0  0  0
   23.6410   99.2957    9.3178 C   0  0  0  0  0  0
   26.0103   98.7639    9.5675 C   0  0  0  0  0  0
   24.7135   98.3965    9.1575 C   0  0  0  0  0  0
   30.6971  105.4072   11.2057 H   0  0  0  0  0  0
  1  2  1  0  0  0
  1  6  2  0  0  0
  1  8  1  0  0  0
  2  5  1  0  0  0
  2 14  1  0  0  0
  3  8  1  0  0  0
  3  4  1  0  0  0
  3 10  1  0  0  0
  4  9  2  0  0  0
  5 12  1  0  0  0
  5  7  2  0  0  0
  6  7  1  0  0  0
  9 11  1  0  0  0
 10 11  2  0  0  0
 10 22  1  0  0  0
 11 23  1  0  0  0
 12 19  1  0  0  0
 13 19  1  0  0  0
 13 15  1  0  0  0
 13 18  2  0  0  0
 14 26  2  0  0  0
 14 27  1  0  0  0
 15 16  1  0  0  0
 15 34  1  0  0  0
 16 17  2  0  0  0
 16 25  1  0  0  0
 17 20  1  0  0  0
 20 21  1  0  0  0
 20 28  2  0  0  0
 22 29  2  0  0  0
 23 30  2  0  0  0
 24 25  2  0  0  0
 24 28  1  0  0  0
 26 32  1  0  0  0
 27 31  2  0  0  0
 29 30  1  0  0  0
 31 33  1  0  0  0
 32 33  2  0  0  0
M  END
>  <CHROM.0>
-59.67906238,49.89326018,62.86216865,66.79895553,62.38356782

>  <CHROM.1>
-126.59646010,-143.60675539,-20.90066046,-156.60918226,-90.18631129,-177.60782832
165.75538256,25.83113230,104.02502541,10.62383140,-2.65084474,0.20488339
0.16931503

>  <Name>
1b73c782eb1555ef4282e15e5d32a559a6723e947d59e1a3395519b3d300d981

>  <RI>
3.88535e+07

>  <Rbt.Current_Directory>
/sysgen/workspace/users/bioinformatics/2111_DEHAAN_GASDERMIN/VS_SPECS

>  <Rbt.Executable>
rbdock ($Id: //depot/dev/client3/rdock/2013.1/src/exe/rbdock.cxx#4 $)

>  <Rbt.Library>
libRbt.so (2013.1, Build901 2013/11/27)

>  <Rbt.Parameter_File>
/home/sruizcarmona/SOFT/GADI/rdock/rDock_2020.GADI/data/scripts/dock.prm

>  <Rbt.Receptor>
gasd_rdock_free.prm

>  <SCORE>
-34.5552

>  <SCORE.INTER>
-31.8975

>  <SCORE.INTER.CONST>
1

>  <SCORE.INTER.POLAR>
-4.85156

>  <SCORE.INTER.REPUL>
0

>  <SCORE.INTER.ROT>
7

>  <SCORE.INTER.VDW>
-27.8022

>  <SCORE.INTER.norm>
-0.966591

>  <SCORE.INTRA>
0.870825

>  <SCORE.INTRA.DIHEDRAL>
-6.61513

>  <SCORE.INTRA.DIHEDRAL.0>
18.6827

>  <SCORE.INTRA.POLAR>
0

>  <SCORE.INTRA.POLAR.0>
0

>  <SCORE.INTRA.REPUL>
0

>  <SCORE.INTRA.REPUL.0>
0

>  <SCORE.INTRA.VDW>
4.17839

>  <SCORE.INTRA.VDW.0>
-5.18466

>  <SCORE.INTRA.norm>
0.0263886

>  <SCORE.RESTR>
0.0153738

>  <SCORE.RESTR.CAVITY>
0.0153738

>  <SCORE.RESTR.norm>
0.000465872

>  <SCORE.SYSTEM>
-3.54385

>  <SCORE.SYSTEM.CONST>
0

>  <SCORE.SYSTEM.DIHEDRAL>
0.794929

>  <SCORE.SYSTEM.POLAR>
-1.55455

>  <SCORE.SYSTEM.REPUL>
0.655643

>  <SCORE.SYSTEM.VDW>
-1.93406

>  <SCORE.SYSTEM.norm>
-0.107389

>  <SCORE.heavy>
33

>  <SCORE.norm>
-1.04713

$$$$
d431b82a39ef95aea32a643be55a8783d56a364ad0dce59ee838f64334a6ed18
  rDOCK(R)          3D
libRbt.so/2013.1/901 2013/11/27
 28 30  0  0  0  0  0  0  0  0999 V2000
   22.3549  103.8607   11.7568 N   0  0  0  0  0  0
   22.1353  105.1580   12.0772 N   0  0  0  0  0  0
   21.1634  103.1463   11.7378 C   0  0  0  0  0  0
   23.6759  103.4135   11.4963 C   0  0  0  0  0  0
   20.1650  104.0198   12.0674 C   0  0  0  0  0  0
   24.7287  104.1039   11.9985 N   0  0  0  0  0  0
   20.8316  105.2588   12.2669 C   0  0  0  0  0  0
   25.9851  103.7112   11.7633 N   0  0  0  0  0  0
   29.4993  104.8018    9.8067 C   0  0  0  0  0  0
   26.2363  102.6161   11.0116 C   0  0  0  0  0  0
   29.8909  106.2219    9.5118 C   0  0  0  0  0  0
   23.8724  102.2625   10.7011 C   0  0  0  0  0  0
   28.5366  104.2808    9.2426 O   0  0  0  0  0  0
   30.2256  104.1833   10.7518 N   0  0  0  0  0  0
   31.0921  106.7448   10.0407 C   0  0  0  0  0  0
   29.0540  107.0652    8.7436 C   0  0  0  0  0  0
   27.5937  102.3128   10.8393 N   0  0  0  0  0  0
   25.1917  101.8479   10.4511 C   0  0  0  0  0  0
   31.4628  108.0800    9.7887 C   0  0  0  0  0  0
   29.4251  108.4006    8.4922 C   0  0  0  0  0  0
   30.6321  108.9109    9.0106 C   0  0  0  0  0  0
   21.0659  101.6940   11.3963 C   0  0  0  0  0  0
   20.2404  106.5845   12.6449 C   0  0  0  0  0  0
   29.9988  102.8213   11.2168 C   0  0  0  0  0  0
   28.5971  102.6665   11.8330 C   0  0  0  0  0  0
   31.0288  110.3479    8.7426 C   0  0  0  0  0  0
   30.9792  104.6980   11.1834 H   0  0  0  0  0  0
   27.8773  101.7840   10.0269 H   0  0  0  0  0  0
  1  2  1  0  0  0
  1  3  1  0  0  0
  1  4  1  0  0  0
  2  7  2  0  0  0
  3  5  2  0  0  0
  3 22  1  0  0  0
  4  6  1  0  0  0
  4 12  2  0  0  0
  5  7  1  0  0  0
  6  8  2  0  0  0
  7 23  1  0  0  0
  8 10  1  0  0  0
  9 14  1  0  0  0
  9 11  1  0  0  0
  9 13  2  0  0  0
 10 18  2  0  0  0
 10 17  1  0  0  0
 11 15  2  0  0  0
 11 16  1  0  0  0
 12 18  1  0  0  0
 14 24  1  0  0  0
 14 27  1  0  0  0
 15 19  1  0  0  0
 16 20  2  0  0  0
 17 25  1  0  0  0
 17 28  1  0  0  0
 19 21  2  0  0  0
 20 21  1  0  0  0
 21 26  1  0  0  0
 24 25  1  0  0  0
M  END
>  <CHROM.0>
-59.00042438,-70.74968441,59.31640703,64.62658263,64.33600915

>  <CHROM.1>
22.87473524,-172.08942253,28.68288023,-60.87793161,-154.60169765,88.59212369
26.34210234,104.77087143,10.75415995,2.75249585,-0.20171845,2.97679114

>  <Name>
d431b82a39ef95aea32a643be55a8783d56a364ad0dce59ee838f64334a6ed18

>  <RI>
3.68383e+07

>  <Rbt.Current_Directory>
/sysgen/workspace/users/bioinformatics/2111_DEHAAN_GASDERMIN/VS_SPECS

>  <Rbt.Executable>
rbdock ($Id: //depot/dev/client3/rdock/2013.1/src/exe/rbdock.cxx#4 $)

>  <Rbt.Library>
libRbt.so (2013.1, Build901 2013/11/27)

>  <Rbt.Parameter_File>
/home/sruizcarmona/SOFT/GADI/rdock/rDock_2020.GADI/data/scripts/dock.prm

>  <Rbt.Receptor>
gasd_rdock_free.prm

>  <SCORE>
-40.2589

>  <SCORE.INTER>
-32.6734

>  <SCORE.INTER.CONST>
1

>  <SCORE.INTER.POLAR>
-4.54978

>  <SCORE.INTER.REPUL>
0

>  <SCORE.INTER.ROT>
6

>  <SCORE.INTER.VDW>
-28.6042

>  <SCORE.INTER.norm>
-1.25667

>  <SCORE.INTRA>
1.52857

>  <SCORE.INTRA.DIHEDRAL>
-0.632805

>  <SCORE.INTRA.DIHEDRAL.0>
12.0533

>  <SCORE.INTRA.POLAR>
0

>  <SCORE.INTRA.POLAR.0>
0

>  <SCORE.INTRA.REPUL>
0

>  <SCORE.INTRA.REPUL.0>
0

>  <SCORE.INTRA.VDW>
1.84498

>  <SCORE.INTRA.VDW.0>
-1.02716

>  <SCORE.INTRA.norm>
0.0587913

>  <SCORE.RESTR>
0

>  <SCORE.RESTR.CAVITY>
0

>  <SCORE.RESTR.norm>
0

>  <SCORE.SYSTEM>
-9.11406

>  <SCORE.SYSTEM.CONST>
0

>  <SCORE.SYSTEM.DIHEDRAL>
0.767856

>  <SCORE.SYSTEM.POLAR>
-2.42287

>  <SCORE.SYSTEM.REPUL>
0.00234026

>  <SCORE.SYSTEM.VDW>
-1.27193

>  <SCORE.SYSTEM.norm>
-0.350541

>  <SCORE.heavy>
26

>  <SCORE.norm>
-1.54842

$$$$
8c9ba7eaac09579b6b90a627e32ddbd6b59513c7c08ea76fc50d76c65e5f981c
  rDOCK(R)          3D
libRbt.so/2013.1/901 2013/11/27
 33 35  0  0  0  0  0  0  0  0999 V2000
   22.5470  103.6257   11.6574 N   0  0  0  0  0  0
   22.1412  104.8991   11.8761 N   0  0  0  0  0  0
   21.4733  102.7459   11.7184 C   0  0  0  0  0  0
   23.9175  103.3562   11.4088 C   0  0  0  0  0  0
   20.3597  103.4886   11.9952 C   0  0  0  0  0  0
   24.8621  104.2195   11.8555 N   0  0  0  0  0  0
   29.5308  105.1585    8.2040 C   0  0  0  0  0  0
   29.0615  107.4370    7.3907 C   0  0  0  0  0  0
   20.8382  104.8238   12.0816 C   0  0  0  0  0  0
   26.1611  103.9960   11.6297 N   0  0  0  0  0  0
   28.7275  106.0833    7.6540 N   0  0  0  0  0  0
   30.1392  107.9911    8.1116 C   0  0  0  0  0  0
   26.5641  102.9035   10.9434 C   0  0  0  0  0  0
   28.3964  108.2233    6.4138 C   0  0  0  0  0  0
   30.6884  105.3628    8.5704 O   0  0  0  0  0  0
   24.2742  102.1979   10.6829 C   0  0  0  0  0  0
   28.9231  103.9675    8.2998 N   0  0  0  0  0  0
   28.7818  109.5651    6.2275 C   0  0  0  0  0  0
   30.5378  109.3290    7.9187 C   0  0  0  0  0  0
   27.9505  102.7865   10.7742 N   0  0  0  0  0  0
   25.6384  101.9609   10.4431 C   0  0  0  0  0  0
   29.8407  110.1181    6.9714 C   0  0  0  0  0  0
   21.5882  101.2718   11.4972 C   0  0  0  0  0  0
   27.3866  107.7247    5.6317 O   0  0  0  0  0  0
   31.5929  109.7838    8.6801 O   0  0  0  0  0  0
   20.0611  106.0756   12.3625 C   0  0  0  0  0  0
   29.5370  102.7700    8.8592 C   0  0  0  0  0  0
   28.5337  101.9761    9.7148 C   0  0  0  0  0  0
   27.8438  106.9147    4.5606 C   0  0  0  0  0  0
   31.5309  109.5992   10.0868 C   0  0  0  0  0  0
   27.8492  105.7616    7.2759 H   0  0  0  0  0  0
   27.9722  103.8819    7.9727 H   0  0  0  0  0  0
   28.5636  103.3183   11.3751 H   0  0  0  0  0  0
  1  2  1  0  0  0
  1  3  1  0  0  0
  1  4  1  0  0  0
  2  9  2  0  0  0
  3  5  2  0  0  0
  3 23  1  0  0  0
  4  6  1  0  0  0
  4 16  2  0  0  0
  5  9  1  0  0  0
  6 10  2  0  0  0
  7 17  1  0  0  0
  7 11  1  0  0  0
  7 15  2  0  0  0
  8 11  1  0  0  0
  8 12  2  0  0  0
  8 14  1  0  0  0
  9 26  1  0  0  0
 10 13  1  0  0  0
 11 31  1  0  0  0
 12 19  1  0  0  0
 13 21  2  0  0  0
 13 20  1  0  0  0
 14 18  2  0  0  0
 14 24  1  0  0  0
 16 21  1  0  0  0
 17 27  1  0  0  0
 17 32  1  0  0  0
 18 22  1  0  0  0
 19 25  1  0  0  0
 19 22  2  0  0  0
 20 28  1  0  0  0
 20 33  1  0  0  0
 24 29  1  0  0  0
 25 30  1  0  0  0
 27 28  1  0  0  0
M  END
>  <CHROM.0>
-58.14149417,-70.42023190,65.23648631,65.28875782,68.61033005

>  <CHROM.1>
24.10410432,-20.89477728,-158.45091170,-77.85911783,139.97546043,-51.88184074
126.62099311,-55.85403426,26.70785834,105.36295443,9.44870783,2.50758765
-0.30620451,2.80512632

>  <Name>
8c9ba7eaac09579b6b90a627e32ddbd6b59513c7c08ea76fc50d76c65e5f981c

>  <RI>
2.78967e+07

>  <Rbt.Current_Directory>
/sysgen/workspace/users/bioinformatics/2111_DEHAAN_GASDERMIN/VS_SPECS

>  <Rbt.Executable>
rbdock ($Id: //depot/dev/client3/rdock/2013.1/src/exe/rbdock.cxx#4 $)

>  <Rbt.Library>
libRbt.so (2013.1, Build901 2013/11/27)

>  <Rbt.Parameter_File>
/home/sruizcarmona/SOFT/GADI/rdock/rDock_2020.GADI/data/scripts/dock.prm

>  <Rbt.Receptor>
gasd_rdock_free.prm

>  <SCORE>
-40.4551

>  <SCORE.INTER>
-31.3374

>  <SCORE.INTER.CONST>
1

>  <SCORE.INTER.POLAR>
-4.50785

>  <SCORE.INTER.REPUL>
0.024574

>  <SCORE.INTER.ROT>
8

>  <SCORE.INTER.VDW>
-29.5336

>  <SCORE.INTER.norm>
-1.04458

>  <SCORE.INTRA>
-0.148367

>  <SCORE.INTRA.DIHEDRAL>
-3.54844

>  <SCORE.INTRA.DIHEDRAL.0>
19.6472

>  <SCORE.INTRA.POLAR>
0

>  <SCORE.INTRA.POLAR.0>
0

>  <SCORE.INTRA.REPUL>
0

>  <SCORE.INTRA.REPUL.0>
0

>  <SCORE.INTRA.VDW>
1.62585

>  <SCORE.INTRA.VDW.0>
0.0673205

>  <SCORE.INTRA.norm>
-0.00494557

>  <SCORE.RESTR>
0

>  <SCORE.RESTR.CAVITY>
0

>  <SCORE.RESTR.norm>
0

>  <SCORE.SYSTEM>
-8.96933

>  <SCORE.SYSTEM.CONST>
0

>  <SCORE.SYSTEM.DIHEDRAL>
1.17888

>  <SCORE.SYSTEM.POLAR>
-2.41372

>  <SCORE.SYSTEM.REPUL>
0.00372203

>  <SCORE.SYSTEM.VDW>
-1.37073

>  <SCORE.SYSTEM.norm>
-0.298978

>  <SCORE.heavy>
30

>  <SCORE.norm>
-1.3485

$$$$
f2e43008cf34d63f75f8473ae598aa1a67f54b637d1bc960aa84e068154c3556
  rDOCK(R)          3D
libRbt.so/2013.1/901 2013/11/27
 29 32  0  0  0  0  0  0  0  0999 V2000
   29.1507  105.3912   10.0085 C   0  0  0  0  0  0
   28.4684  106.2363    9.1861 N   0  0  0  0  0  0
   24.4395  103.2184   11.5387 C   0  0  0  0  0  0
   23.0351  102.6931   11.4123 C   0  0  0  0  0  0
   30.4535  107.1837    9.6691 C   0  0  0  0  0  0
   25.3898  102.3832   11.0758 N   0  0  0  0  0  0
   29.2516  107.3661    8.9528 C   0  0  0  0  0  0
   28.6636  104.0841   10.4928 C   0  0  0  0  0  0
   24.6554  104.3224   12.0384 O   0  0  0  0  0  0
   21.9151  103.5558   11.5600 C   0  0  0  0  0  0
   26.7987  102.5692   11.0454 C   0  0  0  0  0  0
   27.2782  103.8099   10.5752 C   0  0  0  0  0  0
   22.8319  101.3261   11.1084 C   0  0  0  0  0  0
   22.1448  104.8837   11.8657 O   0  0  0  0  0  0
   29.5690  103.0723   10.8856 C   0  0  0  0  0  0
   29.1051  101.8242   11.3404 C   0  0  0  0  0  0
   31.4702  108.1334    9.6561 C   0  0  0  0  0  0
   29.0136  108.5064    8.1919 C   0  0  0  0  0  0
   27.7250  101.5676   11.4173 C   0  0  0  0  0  0
   20.6109  103.0172   11.4059 C   0  0  0  0  0  0
   21.0578  105.6775   12.3187 C   0  0  0  0  0  0
   21.5334  100.8083   10.9601 C   0  0  0  0  0  0
   30.0380  109.4766    8.1713 C   0  0  0  0  0  0
   31.2397  109.2942    8.8875 C   0  0  0  0  0  0
   20.4230  101.6550   11.1095 C   0  0  0  0  0  0
   27.5445  106.0550    8.8164 H   0  0  0  0  0  0
   25.0509  101.5407   10.6354 H   0  0  0  0  0  0
   30.3559  105.9498   10.3111 N   0  3  0  0  0  0
   31.0522  105.5214   10.9071 H   0  0  0  0  0  0
  1  2  1  0  0  0
  1  8  1  0  0  0
  1 28  2  0  0  0
  2  7  1  0  0  0
  2 26  1  0  0  0
  3  6  1  0  0  0
  3  4  1  0  0  0
  3  9  2  0  0  0
  4 10  1  0  0  0
  4 13  2  0  0  0
  5 17  1  0  0  0
  5  7  2  0  0  0
  5 28  1  0  0  0
  6 11  1  0  0  0
  6 27  1  0  0  0
  7 18  1  0  0  0
  8 12  2  0  0  0
  8 15  1  0  0  0
 10 14  1  0  0  0
 10 20  2  0  0  0
 11 12  1  0  0  0
 11 19  2  0  0  0
 13 22  1  0  0  0
 14 21  1  0  0  0
 15 16  2  0  0  0
 16 19  1  0  0  0
 17 24  2  0  0  0
 18 23  2  0  0  0
 20 25  1  0  0  0
 22 25  2  0  0  0
 23 24  1  0  0  0
 28 29  1  0  0  0
M  END
>  <CHROM.0>
-57.75587961,-70.93276919,-61.86740543,68.04361514,178.47302966

>  <CHROM.1>
-24.67756427,-165.27815248,-46.40031404,-165.51639173,26.34509138,104.54847104
10.61038035,-0.54572914,-0.12440215,2.90023658

>  <Name>
f2e43008cf34d63f75f8473ae598aa1a67f54b637d1bc960aa84e068154c3556

>  <RI>
2.08844e+07

>  <Rbt.Current_Directory>
/sysgen/workspace/users/bioinformatics/2111_DEHAAN_GASDERMIN/VS_SPECS

>  <Rbt.Executable>
rbdock ($Id: //depot/dev/client3/rdock/2013.1/src/exe/rbdock.cxx#4 $)

>  <Rbt.Library>
libRbt.so (2013.1, Build901 2013/11/27)

>  <Rbt.Parameter_File>
/home/sruizcarmona/SOFT/GADI/rdock/rDock_2020.GADI/data/scripts/dock.prm

>  <Rbt.Receptor>
gasd_rdock_free.prm

>  <SCORE>
-36.6043

>  <SCORE.INTER>
-30.9401

>  <SCORE.INTER.CONST>
1

>  <SCORE.INTER.POLAR>
-5.05108

>  <SCORE.INTER.REPUL>
0

>  <SCORE.INTER.ROT>
4

>  <SCORE.INTER.VDW>
-23.1664

>  <SCORE.INTER.norm>
-1.19

>  <SCORE.INTRA>
2.20099

>  <SCORE.INTRA.DIHEDRAL>
2.12809

>  <SCORE.INTRA.DIHEDRAL.0>
8.14273

>  <SCORE.INTRA.POLAR>
0

>  <SCORE.INTRA.POLAR.0>
0

>  <SCORE.INTRA.REPUL>
0

>  <SCORE.INTRA.REPUL.0>
0

>  <SCORE.INTRA.VDW>
1.13695

>  <SCORE.INTRA.VDW.0>
0.648685

>  <SCORE.INTRA.norm>
0.0846534

>  <SCORE.RESTR>
0

>  <SCORE.RESTR.CAVITY>
0

>  <SCORE.RESTR.norm>
0

>  <SCORE.SYSTEM>
-7.86516

>  <SCORE.SYSTEM.CONST>
0

>  <SCORE.SYSTEM.DIHEDRAL>
0.949739

>  <SCORE.SYSTEM.POLAR>
-2.19453

>  <SCORE.SYSTEM.REPUL>
0.00429907

>  <SCORE.SYSTEM.VDW>
-0.900134

>  <SCORE.SYSTEM.norm>
-0.302506

>  <SCORE.heavy>
26

>  <SCORE.norm>
-1.40786

$$$$
5a0ba91b8fa6564abdf632f5bd61865854464d348594d5523b6150655c2a8f84
  rDOCK(R)          3D
libRbt.so/2013.1/901 2013/11/27
 28 30  0  0  0  0  0  0  0  0999 V2000
   29.3900  106.3696    9.2551 C   0  0  0  0  0  0
   28.5284  105.3525    9.4513 N   0  0  0  0  0  0
   23.4642  104.3191   11.9352 N   0  0  0  0  0  0
   24.7947  104.1922   11.8766 N   0  0  0  0  0  0
   28.8210  104.0593    9.7010 C   0  0  0  0  0  0
   28.7228  107.5169    9.0336 N   0  0  0  0  0  0
   25.3453  102.9765   11.6697 C   0  0  0  0  0  0
   22.6510  103.2419   11.7887 C   0  0  0  0  0  0
   30.6182  106.2745    9.2918 O   0  0  0  0  0  0
   27.1124  102.9774   11.6189 S   0  0  0  0  0  0
   29.9566  103.5918    9.8001 O   0  0  0  0  0  0
   21.1972  103.4998   11.8770 C   0  0  0  0  0  0
   23.1802  101.9499   11.5702 C   0  0  0  0  0  0
   27.6188  103.1353    9.8819 C   0  0  0  0  0  0
   24.5774  101.8072   11.5076 C   0  0  0  0  0  0
   29.2485  108.8100    8.7639 C   0  0  0  0  0  0
   20.2710  102.4373   12.0110 C   0  0  0  0  0  0
   20.6922  104.8213   11.8430 C   0  0  0  0  0  0
   28.3236  109.8647    8.6115 C   0  0  0  0  0  0
   30.6304  109.0747    8.5986 C   0  0  0  0  0  0
   18.8878  102.6852   12.1038 C   0  0  0  0  0  0
   19.3097  105.0745   11.9349 C   0  0  0  0  0  0
   31.0730  110.3809    8.3121 C   0  0  0  0  0  0
   28.7681  111.1701    8.3257 C   0  0  0  0  0  0
   18.4051  104.0056   12.0657 C   0  0  0  0  0  0
   30.1436  111.4295    8.1790 C   0  0  0  0  0  0
   27.5465  105.5760    9.3978 H   0  0  0  0  0  0
   27.7190  107.4749    9.1255 H   0  0  0  0  0  0
  1  2  1  0  0  0
  1  6  1  0  0  0
  1  9  2  0  0  0
  2  5  1  0  0  0
  2 27  1  0  0  0
  3  4  1  0  0  0
  3  8  2  0  0  0
  4  7  2  0  0  0
  5 11  2  0  0  0
  5 14  1  0  0  0
  6 16  1  0  0  0
  6 28  1  0  0  0
  7 10  1  0  0  0
  7 15  1  0  0  0
  8 13  1  0  0  0
  8 12  1  0  0  0
 10 14  1  0  0  0
 12 17  1  0  0  0
 12 18  2  0  0  0
 13 15  2  0  0  0
 16 19  2  0  0  0
 16 20  1  0  0  0
 17 21  2  0  0  0
 18 22  1  0  0  0
 19 24  1  0  0  0
 20 23  2  0  0  0
 21 25  1  0  0  0
 22 25  2  0  0  0
 23 26  1  0  0  0
 24 26  2  0  0  0
M  END
>  <CHROM.0>
-57.79051433,172.54508908,62.64498189,66.36618726,64.27749092

>  <CHROM.1>
-92.32404109,-177.92703312,-93.68995861,-167.08010149,139.97240507,25.99155951
105.29674177,10.46378220,-0.58338332,-0.19286850,2.87920518

>  <Name>
5a0ba91b8fa6564abdf632f5bd61865854464d348594d5523b6150655c2a8f84

>  <RI>
1.25367e+07

>  <Rbt.Current_Directory>
/sysgen/workspace/users/bioinformatics/2111_DEHAAN_GASDERMIN/VS_SPECS

>  <Rbt.Executable>
rbdock ($Id: //depot/dev/client3/rdock/2013.1/src/exe/rbdock.cxx#4 $)

>  <Rbt.Library>
libRbt.so (2013.1, Build901 2013/11/27)

>  <Rbt.Parameter_File>
/home/sruizcarmona/SOFT/GADI/rdock/rDock_2020.GADI/data/scripts/dock.prm

>  <Rbt.Receptor>
gasd_rdock_free.prm

>  <SCORE>
-36.2542

>  <SCORE.INTER>
-29.1954

>  <SCORE.INTER.CONST>
1

>  <SCORE.INTER.POLAR>
-4.11523

>  <SCORE.INTER.REPUL>
0.00037958

>  <SCORE.INTER.ROT>
5

>  <SCORE.INTER.VDW>
-25.6055

>  <SCORE.INTER.norm>
-1.1229

>  <SCORE.INTRA>
-0.580319

>  <SCORE.INTRA.DIHEDRAL>
-1.27948

>  <SCORE.INTRA.DIHEDRAL.0>
6.65364

>  <SCORE.INTRA.POLAR>
0

>  <SCORE.INTRA.POLAR.0>
0

>  <SCORE.INTRA.REPUL>
0

>  <SCORE.INTRA.REPUL.0>
0

>  <SCORE.INTRA.VDW>
0.059423

>  <SCORE.INTRA.VDW.0>
-1.03819

>  <SCORE.INTRA.norm>
-0.02232

>  <SCORE.RESTR>
0

>  <SCORE.RESTR.CAVITY>
0

>  <SCORE.RESTR.norm>
0

>  <SCORE.SYSTEM>
-6.47844

>  <SCORE.SYSTEM.CONST>
0

>  <SCORE.SYSTEM.DIHEDRAL>
0.625895

>  <SCORE.SYSTEM.POLAR>
-1.57075

>  <SCORE.SYSTEM.REPUL>
0.00424837

>  <SCORE.SYSTEM.VDW>
-1.47207

>  <SCORE.SYSTEM.norm>
-0.249171

>  <SCORE.heavy>
26

>  <SCORE.norm>
-1.39439

$$$$
a20d6981b5b82374fa4b56fac4e064ccbca196bcca080d6fe56ababc695c6723
  rDOCK(R)          3D
libRbt.so/2013.1/901 2013/11/27
 28 31  0  0  0  0  0  0  0  0999 V2000
   25.8930  104.1838   11.4075 N   0  0  0  0  0  0
   26.8494  103.2962   11.0836 C   0  0  0  0  0  0
   29.4180  107.1977    8.6273 C   0  0  0  0  0  0
   24.7823  103.3964   11.6404 C   0  0  0  0  0  0
   26.4604  101.9804   11.0835 O   0  0  0  0  0  0
   29.9551  108.5634    8.3017 C   0  0  0  0  0  0
   30.2117  106.4563    9.4210 N   0  0  0  0  0  0
   29.9309  105.1506    9.8965 C   0  0  0  0  0  0
   28.2391  103.5883   10.7376 C   0  0  0  0  0  0
   25.1289  102.0444   11.4421 C   0  0  0  0  0  0
   28.5966  104.8617   10.2478 C   0  0  0  0  0  0
   23.5558  103.7934   11.9975 N   0  0  0  0  0  0
   29.4634  109.3166    7.2019 C   0  0  0  0  0  0
   30.9475  104.1767   10.0744 C   0  0  0  0  0  0
   28.3337  106.8178    8.1838 O   0  0  0  0  0  0
   29.2408  102.6067   10.8862 C   0  0  0  0  0  0
   30.5796  102.8977   10.5635 C   0  0  0  0  0  0
   28.2627  108.6967    6.1191 Cl  0  0  0  0  0  0
   30.9553  109.1284    9.1280 C   0  0  0  0  0  0
   32.2511  104.5298    9.7879 O   0  0  0  0  0  0
   24.1844  101.0238   11.6127 C   0  0  0  0  0  0
   22.6354  102.8086   12.1645 C   0  0  0  0  0  0
   29.9769  110.6048    6.9477 C   0  0  0  0  0  0
   32.5730  104.9222    8.4620 C   0  0  0  0  0  0
   22.8884  101.4267   11.9885 C   0  0  0  0  0  0
   31.4626  110.4150    8.8662 C   0  0  0  0  0  0
   30.9728  111.1545    7.7753 C   0  0  0  0  0  0
   31.0211  106.9147    9.8125 H   0  0  0  0  0  0
  1  2  2  0  0  0
  1  4  1  0  0  0
  2  5  1  0  0  0
  2  9  1  0  0  0
  3  7  1  0  0  0
  3  6  1  0  0  0
  3 15  2  0  0  0
  4 10  1  0  0  0
  4 12  2  0  0  0
  5 10  1  0  0  0
  6 13  2  0  0  0
  6 19  1  0  0  0
  7  8  1  0  0  0
  7 28  1  0  0  0
  8 11  2  0  0  0
  8 14  1  0  0  0
  9 11  1  0  0  0
  9 16  2  0  0  0
 10 21  2  0  0  0
 12 22  1  0  0  0
 13 18  1  0  0  0
 13 23  1  0  0  0
 14 17  2  0  0  0
 14 20  1  0  0  0
 16 17  1  0  0  0
 19 26  2  0  0  0
 20 24  1  0  0  0
 21 25  1  0  0  0
 22 25  2  0  0  0
 23 27  2  0  0  0
 26 27  1  0  0  0
M  END
>  <CHROM.0>
61.28972962,82.53374365,-63.20051433,66.12441030,61.90607674

>  <CHROM.1>
-23.05442503,161.62468325,-37.55110459,-61.25671856,28.31883322,105.54794577
9.61550531,2.19771332,-0.06529603,2.65381409

>  <Name>
a20d6981b5b82374fa4b56fac4e064ccbca196bcca080d6fe56ababc695c6723

>  <RI>
1.88978e+07

>  <Rbt.Current_Directory>
/sysgen/workspace/users/bioinformatics/2111_DEHAAN_GASDERMIN/VS_SPECS

>  <Rbt.Executable>
rbdock ($Id: //depot/dev/client3/rdock/2013.1/src/exe/rbdock.cxx#4 $)

>  <Rbt.Library>
libRbt.so (2013.1, Build901 2013/11/27)

>  <Rbt.Parameter_File>
/home/sruizcarmona/SOFT/GADI/rdock/rDock_2020.GADI/data/scripts/dock.prm

>  <Rbt.Receptor>
gasd_rdock_free.prm

>  <SCORE>
-33.3637

>  <SCORE.INTER>
-29.1377

>  <SCORE.INTER.CONST>
1

>  <SCORE.INTER.POLAR>
-2.76309

>  <SCORE.INTER.REPUL>
0.0292555

>  <SCORE.INTER.ROT>
4

>  <SCORE.INTER.VDW>
-29.2895

>  <SCORE.INTER.norm>
-1.07917

>  <SCORE.INTRA>
-0.590689

>  <SCORE.INTRA.DIHEDRAL>
-2.30102

>  <SCORE.INTRA.DIHEDRAL.0>
14.6813

>  <SCORE.INTRA.POLAR>
0

>  <SCORE.INTRA.POLAR.0>
0

>  <SCORE.INTRA.REPUL>
0

>  <SCORE.INTRA.REPUL.0>
0

>  <SCORE.INTRA.VDW>
0.559822

>  <SCORE.INTRA.VDW.0>
-0.0326942

>  <SCORE.INTRA.norm>
-0.0218774

>  <SCORE.RESTR>
0

>  <SCORE.RESTR.CAVITY>
0

>  <SCORE.RESTR.norm>
0

>  <SCORE.SYSTEM>
-3.63533

>  <SCORE.SYSTEM.CONST>
0

>  <SCORE.SYSTEM.DIHEDRAL>
2.49179

>  <SCORE.SYSTEM.POLAR>
-0.857392

>  <SCORE.SYSTEM.REPUL>
0.156219

>  <SCORE.SYSTEM.VDW>
-2.74719

>  <SCORE.SYSTEM.norm>
-0.134642

>  <SCORE.heavy>
27

>  <SCORE.norm>
-1.23569

$$$$
3e81b5bd17497df106349733081f1e94422b14b94d1121a72d997531539d02c0
  rDOCK(R)          3D
libRbt.so/2013.1/901 2013/11/27
 30 32  0  0  0  0  0  0  0  0999 V2000
   22.4059  103.8195   11.7961 N   0  0  0  0  0  0
   22.1792  105.1023   12.1685 N   0  0  0  0  0  0
   23.7198  103.3322   11.5651 C   0  0  0  0  0  0
   24.7729  104.0955   11.9488 N   0  0  0  0  0  0
   21.2143  103.1255   11.6902 C   0  0  0  0  0  0
   29.3929  104.8643    8.8732 C   0  0  0  0  0  0
   26.0307  103.6851   11.7549 N   0  0  0  0  0  0
   20.2000  103.9844   12.0023 C   0  0  0  0  0  0
   20.8659  105.2067   12.2931 C   0  0  0  0  0  0
   28.9910  104.9789    7.5954 N   0  0  0  0  0  0
   28.7752  106.1615    6.8363 C   0  0  0  0  0  0
   26.2848  102.4941   11.1688 C   0  0  0  0  0  0
   29.6251  105.8033    9.6346 O   0  0  0  0  0  0
   23.9208  102.0759   10.9471 C   0  0  0  0  0  0
   29.4945  103.5787    9.2406 N   0  0  0  0  0  0
   28.0657  107.1267    4.6990 C   0  0  0  0  0  0
   28.8384  108.5889    6.4964 C   0  0  0  0  0  0
   28.2901  106.0039    5.5213 C   0  0  0  0  0  0
   29.0609  107.4631    7.3157 C   0  0  0  0  0  0
   27.6433  102.1815   11.0233 N   0  0  0  0  0  0
   28.3397  108.4188    5.1893 C   0  0  0  0  0  0
   25.2418  101.6423   10.7426 C   0  0  0  0  0  0
   20.2657  106.5194   12.7011 C   0  0  0  0  0  0
   29.8977  103.1256   10.5659 C   0  0  0  0  0  0
   28.6951  103.0547   11.5235 C   0  0  0  0  0  0
   27.5396  106.9440    3.2903 C   0  0  0  0  0  0
   29.1466  109.9775    7.0174 C   0  0  0  0  0  0
   28.7541  104.1187    7.1248 H   0  0  0  0  0  0
   29.2836  102.8638    8.5604 H   0  0  0  0  0  0
   27.9004  101.3013   10.6001 H   0  0  0  0  0  0
  1  2  1  0  0  0
  1  3  1  0  0  0
  1  5  1  0  0  0
  2  9  2  0  0  0
  3  4  1  0  0  0
  3 14  2  0  0  0
  4  7  2  0  0  0
  5  8  2  0  0  0
  6 15  1  0  0  0
  6 10  1  0  0  0
  6 13  2  0  0  0
  7 12  1  0  0  0
  8  9  1  0  0  0
  9 23  1  0  0  0
 10 11  1  0  0  0
 10 28  1  0  0  0
 11 18  1  0  0  0
 11 19  2  0  0  0
 12 22  2  0  0  0
 12 20  1  0  0  0
 14 22  1  0  0  0
 15 24  1  0  0  0
 15 29  1  0  0  0
 16 18  2  0  0  0
 16 26  1  0  0  0
 16 21  1  0  0  0
 17 19  1  0  0  0
 17 21  2  0  0  0
 17 27  1  0  0  0
 20 25  1  0  0  0
 20 30  1  0  0  0
 24 25  1  0  0  0
M  END
>  <CHROM.0>
-59.49195803,-71.60276021,-173.62424335,65.69024307,60.47119548

>  <CHROM.1>
11.58011170,-177.13403592,2.60623986,86.16239070,-141.14760661,57.47299690
26.29741778,104.93733429,9.47819084,2.41660701,-0.29397539,2.38600291

>  <Name>
3e81b5bd17497df106349733081f1e94422b14b94d1121a72d997531539d02c0

>  <RI>
3.78992e+07

>  <Rbt.Current_Directory>
/sysgen/workspace/users/bioinformatics/2111_DEHAAN_GASDERMIN/VS_SPECS

>  <Rbt.Executable>
rbdock ($Id: //depot/dev/client3/rdock/2013.1/src/exe/rbdock.cxx#4 $)

>  <Rbt.Library>
libRbt.so (2013.1, Build901 2013/11/27)

>  <Rbt.Parameter_File>
/home/sruizcarmona/SOFT/GADI/rdock/rDock_2020.GADI/data/scripts/dock.prm

>  <Rbt.Receptor>
gasd_rdock_free.prm

>  <SCORE>
-38.6435

>  <SCORE.INTER>
-28.989

>  <SCORE.INTER.CONST>
1

>  <SCORE.INTER.POLAR>
-3.6481

>  <SCORE.INTER.REPUL>
0

>  <SCORE.INTER.ROT>
6

>  <SCORE.INTER.VDW>
-27.9854

>  <SCORE.INTER.norm>
-1.07367

>  <SCORE.INTRA>
-0.477586

>  <SCORE.INTRA.DIHEDRAL>
-1.13718

>  <SCORE.INTRA.DIHEDRAL.0>
5.50326

>  <SCORE.INTRA.POLAR>
0

>  <SCORE.INTRA.POLAR.0>
0

>  <SCORE.INTRA.REPUL>
0

>  <SCORE.INTRA.REPUL.0>
0

>  <SCORE.INTRA.VDW>
0.0910056

>  <SCORE.INTRA.VDW.0>
-0.894629

>  <SCORE.INTRA.norm>
-0.0176884

>  <SCORE.RESTR>
0

>  <SCORE.RESTR.CAVITY>
0

>  <SCORE.RESTR.norm>
0

>  <SCORE.SYSTEM>
-9.17691

>  <SCORE.SYSTEM.CONST>
0

>  <SCORE.SYSTEM.DIHEDRAL>
1.01143

>  <SCORE.SYSTEM.POLAR>
-2.45207

>  <SCORE.SYSTEM.REPUL>
0.0014922

>  <SCORE.SYSTEM.VDW>
-1.35306

>  <SCORE.SYSTEM.norm>
-0.339886

>  <SCORE.heavy>
27

>  <SCORE.norm>
-1.43124

$$$$
62c83a29d5acca2dafb209848eced2cba841e13ad07781694a51e3460bcaba45
  rDOCK(R)          3D
libRbt.so/2013.1/901 2013/11/27
 20 21  0  0  0  0  0  0  0  0999 V2000
   29.7901  106.9263    9.2391 C   0  0  0  0  0  0
   28.6741  106.5672    8.5204 C   0  0  0  0  0  0
   28.1017  107.7734    7.4106 S   0  0  0  0  0  0
   30.2142  108.2727    8.8986 C   0  0  0  0  0  0
   29.3831  108.8703    7.8961 C   0  0  0  0  0  0
   30.4607  106.0356   10.2472 C   0  0  0  0  0  0
   32.8552  102.6044    9.4411 O   0  0  0  0  0  0
   34.7210  106.3923    8.1859 O   0  0  0  0  0  0
   31.2889  109.0593    9.3819 C   0  0  0  0  0  0
   29.6226  110.1706    7.4126 C   0  0  0  0  0  0
   30.8653  103.9143    9.0518 C   0  0  0  0  0  0
   32.3973  105.8455    8.6889 C   0  0  0  0  0  0
   31.9337  102.9933    8.4451 C   0  0  0  0  0  0
   33.8834  105.6332    9.0315 C   0  0  0  0  0  0
   31.5330  110.3609    8.9029 C   0  0  0  0  0  0
   30.7008  110.9179    7.9167 C   0  0  0  0  0  0
   32.4303  101.9927   10.0242 H   0  0  0  0  0  0
   35.6217  106.2265    8.4226 H   0  0  0  0  0  0
   31.4773  105.1431    9.6285 N   0  3  0  0  0  0
   32.0451  104.8219   10.3997 H   0  0  0  0  0  0
  1  2  2  0  0  0
  1  4  1  0  0  0
  1  6  1  0  0  0
  2  3  1  0  0  0
  3  5  1  0  0  0
  4  5  2  0  0  0
  4  9  1  0  0  0
  5 10  1  0  0  0
  6 19  1  0  0  0
  7 13  1  0  0  0
  7 17  1  0  0  0
  8 14  1  0  0  0
  8 18  1  0  0  0
  9 15  2  0  0  0
 10 16  2  0  0  0
 11 13  1  0  0  0
 11 19  1  0  0  0
 12 14  1  0  0  0
 12 19  1  0  0  0
 15 16  1  0  0  0
 19 20  1  0  0  0
M  END
>  <CHROM.0>
-59.32943299,-71.77082450,-177.83975549,-176.00568877,64.27360248

>  <CHROM.1>
87.59181185,-83.47913056,71.86758883,-179.38540512,60.04309961,-178.79714486
-175.52277054,125.78111492,30.95650895,106.82727078,8.64868222,2.09492174
-0.12799047,-0.12601075

>  <Name>
62c83a29d5acca2dafb209848eced2cba841e13ad07781694a51e3460bcaba45

>  <RI>
2.35099e+07

>  <Rbt.Current_Directory>
/sysgen/workspace/users/bioinformatics/2111_DEHAAN_GASDERMIN/VS_SPECS

>  <Rbt.Executable>
rbdock ($Id: //depot/dev/client3/rdock/2013.1/src/exe/rbdock.cxx#4 $)

>  <Rbt.Library>
libRbt.so (2013.1, Build901 2013/11/27)

>  <Rbt.Parameter_File>
/home/sruizcarmona/SOFT/GADI/rdock/rDock_2020.GADI/data/scripts/dock.prm

>  <Rbt.Receptor>
gasd_rdock_free.prm

>  <SCORE>
-31.1956

>  <SCORE.INTER>
-24.3759

>  <SCORE.INTER.CONST>
1

>  <SCORE.INTER.POLAR>
-3.91563

>  <SCORE.INTER.REPUL>
0

>  <SCORE.INTER.ROT>
6

>  <SCORE.INTER.VDW>
-22.4628

>  <SCORE.INTER.norm>
-1.43388

>  <SCORE.INTRA>
1.35664

>  <SCORE.INTRA.DIHEDRAL>
-0.960348

>  <SCORE.INTRA.DIHEDRAL.0>
7.35512

>  <SCORE.INTRA.POLAR>
0

>  <SCORE.INTRA.POLAR.0>
0

>  <SCORE.INTRA.REPUL>
0

>  <SCORE.INTRA.REPUL.0>
0

>  <SCORE.INTRA.VDW>
1.83681

>  <SCORE.INTRA.VDW.0>
-0.950568

>  <SCORE.INTRA.norm>
0.0798021

>  <SCORE.RESTR>
0

>  <SCORE.RESTR.CAVITY>
0

>  <SCORE.RESTR.norm>
0

>  <SCORE.SYSTEM>
-8.17633

>  <SCORE.SYSTEM.CONST>
0

>  <SCORE.SYSTEM.DIHEDRAL>
0.863282

>  <SCORE.SYSTEM.POLAR>
-2.15051

>  <SCORE.SYSTEM.REPUL>
0.00177708

>  <SCORE.SYSTEM.VDW>
-1.30511

>  <SCORE.SYSTEM.norm>
-0.48096

>  <SCORE.heavy>
17

>  <SCORE.norm>
-1.83503

$$$$
30d37a06db22045571a3a3ab69ede9e01933781140fe62cc44c75f2a66dd43a5
  rDOCK(R)          3D
libRbt.so/2013.1/901 2013/11/27
 26 28  0  0  0  0  0  0  0  0999 V2000
   24.5607  103.2665   11.9380 C   0  0  0  0  0  0
   24.3973  101.9503   11.7878 N   0  0  0  0  0  0
   23.5876  104.1919   11.9244 N   0  0  0  0  0  0
   25.8514  103.6472   12.1075 O   0  0  0  0  0  0
   28.2607  108.4922    6.7687 C   0  0  0  0  0  0
   26.7303  103.4651   11.0658 C   0  0  0  0  0  0
   27.4998  104.5477   10.5919 C   0  0  0  0  0  0
   29.5631  109.0834    4.8455 C   0  0  0  0  0  0
   28.3978  104.3649    9.5195 C   0  0  0  0  0  0
   29.8996  110.4262    6.9386 C   0  0  0  0  0  0
   22.0357  102.3811   11.5851 C   0  0  0  0  0  0
   29.1532  107.5901    7.6630 C   0  0  0  0  0  0
   22.3249  103.7489   11.7507 C   0  0  0  0  0  0
   23.1362  101.5032   11.6123 C   0  0  0  0  0  0
   28.8031  107.7905    4.5218 C   0  0  0  0  0  0
   29.2404  105.5235    9.0285 C   0  0  0  0  0  0
   27.7392  102.0166    9.3793 C   0  0  0  0  0  0
   26.8458  102.2011   10.4519 C   0  0  0  0  0  0
   27.7013  107.7063    5.5783 C   0  0  0  0  0  0
   28.5159  103.0956    8.9149 C   0  0  0  0  0  0
   29.1570  111.1457    8.0724 C   0  0  0  0  0  0
   28.9843  109.6085    6.1047 N   0  3  0  0  0  0
   28.2509  110.2369    5.8069 H   0  0  0  0  0  0
   28.3961  106.4968    8.3100 N   0  3  0  0  0  0
   27.7452  106.8894    8.9740 H   0  0  0  0  0  0
   27.8730  105.9970    7.6044 H   0  0  0  0  0  0
  1  2  2  0  0  0
  1  3  1  0  0  0
  1  4  1  0  0  0
  2 14  1  0  0  0
  3 13  2  0  0  0
  4  6  1  0  0  0
  5 12  1  0  0  0
  5 19  1  0  0  0
  5 22  1  0  0  0
  6  7  1  0  0  0
  6 18  2  0  0  0
  7  9  2  0  0  0
  8 15  1  0  0  0
  8 22  1  0  0  0
  9 16  1  0  0  0
  9 20  1  0  0  0
 10 21  1  0  0  0
 10 22  1  0  0  0
 11 13  1  0  0  0
 11 14  2  0  0  0
 12 24  1  0  0  0
 15 19  1  0  0  0
 16 24  1  0  0  0
 17 18  1  0  0  0
 17 20  2  0  0  0
 22 23  1  0  0  0
 24 25  1  0  0  0
 24 26  1  0  0  0
M  END
>  <CHROM.0>
-58.25933004,-71.45084717,63.03257569,-177.99224835,178.35925060

>  <CHROM.1>
65.60828488,126.63082112,-64.86973079,-71.91031533,-61.89649177,172.70577582
-173.57901895,27.03863104,105.51299823,9.09152572,2.17468275,-0.47906653
2.76342860

>  <Name>
30d37a06db22045571a3a3ab69ede9e01933781140fe62cc44c75f2a66dd43a5

>  <RI>
4.12743e+07

>  <Rbt.Current_Directory>
/sysgen/workspace/users/bioinformatics/2111_DEHAAN_GASDERMIN/VS_SPECS

>  <Rbt.Executable>
rbdock ($Id: //depot/dev/client3/rdock/2013.1/src/exe/rbdock.cxx#4 $)

>  <Rbt.Library>
libRbt.so (2013.1, Build901 2013/11/27)

>  <Rbt.Parameter_File>
/home/sruizcarmona/SOFT/GADI/rdock/rDock_2020.GADI/data/scripts/dock.prm

>  <Rbt.Receptor>
gasd_rdock_free.prm

>  <SCORE>
-39.0252

>  <SCORE.INTER>
-32.5018

>  <SCORE.INTER.CONST>
1

>  <SCORE.INTER.POLAR>
-5.25138

>  <SCORE.INTER.REPUL>
0

>  <SCORE.INTER.ROT>
7

>  <SCORE.INTER.VDW>
-27.0471

>  <SCORE.INTER.norm>
-1.41312

>  <SCORE.INTRA>
0.266699

>  <SCORE.INTRA.DIHEDRAL>
1.17608

>  <SCORE.INTRA.DIHEDRAL.0>
7.08127

>  <SCORE.INTRA.POLAR>
0

>  <SCORE.INTRA.POLAR.0>
0

>  <SCORE.INTRA.REPUL>
0

>  <SCORE.INTRA.REPUL.0>
0

>  <SCORE.INTRA.VDW>
-0.321342

>  <SCORE.INTRA.VDW.0>
-0.65881

>  <SCORE.INTRA.norm>
0.0115956

>  <SCORE.RESTR>
0

>  <SCORE.RESTR.CAVITY>
0

>  <SCORE.RESTR.norm>
0

>  <SCORE.SYSTEM>
-6.79003

>  <SCORE.SYSTEM.CONST>
0

>  <SCORE.SYSTEM.DIHEDRAL>
0.728879

>  <SCORE.SYSTEM.POLAR>
-1.89131

>  <SCORE.SYSTEM.REPUL>
0.00354025

>  <SCORE.SYSTEM.VDW>
-0.741724

>  <SCORE.SYSTEM.norm>
-0.295219

>  <SCORE.heavy>
23

>  <SCORE.norm>
-1.69675

$$$$
93d9afad1980a3c1ec57b88f4aab57f2a6488745b2e84b069771066870150e16
  rDOCK(R)          3D
libRbt.so/2013.1/901 2013/11/27
 28 30  0  0  0  0  0  0  0  0999 V2000
   22.4040  103.7990   11.8213 N   0  0  0  0  0  0
   22.0985  105.1001   12.0396 N   0  0  0  0  0  0
   21.2792  102.9954   11.9623 C   0  0  0  0  0  0
   23.7361  103.4333   11.4971 C   0  0  0  0  0  0
   20.2368  103.8163   12.2906 C   0  0  0  0  0  0
   24.7612  104.2403   11.8645 N   0  0  0  0  0  0
   20.8081  105.1169   12.3233 C   0  0  0  0  0  0
   26.0262  103.9257   11.5663 N   0  0  0  0  0  0
   29.1570  106.4631    8.4635 C   0  0  0  0  0  0
   26.3134  102.7951   10.8835 C   0  0  0  0  0  0
   23.9706  102.2390   10.7799 C   0  0  0  0  0  0
   30.2349  106.3110    7.8897 O   0  0  0  0  0  0
   28.5791  105.5092    9.2083 N   0  0  0  0  0  0
   28.4040  107.7894    8.3387 C   0  0  0  0  0  0
   27.6758  102.5822   10.6338 N   0  0  0  0  0  0
   25.2989  101.9065   10.4636 C   0  0  0  0  0  0
   21.2810  101.5137   11.7624 C   0  0  0  0  0  0
   29.3717  108.9538    8.2034 C   0  0  0  0  0  0
   20.1352  106.4228   12.6264 C   0  0  0  0  0  0
   29.1511  104.1923    9.4453 C   0  0  0  0  0  0
   28.6687  103.6353   10.7930 C   0  0  0  0  0  0
   29.1543  109.9455    7.2228 C   0  0  0  0  0  0
   30.4904  109.0528    9.0586 C   0  0  0  0  0  0
   31.3864  110.1320    8.9303 C   0  0  0  0  0  0
   30.0508  111.0244    7.0952 C   0  0  0  0  0  0
   31.1671  111.1176    7.9486 C   0  0  0  0  0  0
   27.6947  105.7168    9.6485 H   0  0  0  0  0  0
   27.9923  101.6438   10.4359 H   0  0  0  0  0  0
  1  2  1  0  0  0
  1  3  1  0  0  0
  1  4  1  0  0  0
  2  7  2  0  0  0
  3  5  2  0  0  0
  3 17  1  0  0  0
  4  6  1  0  0  0
  4 11  2  0  0  0
  5  7  1  0  0  0
  6  8  2  0  0  0
  7 19  1  0  0  0
  8 10  1  0  0  0
  9 13  1  0  0  0
  9 12  2  0  0  0
  9 14  1  0  0  0
 10 16  2  0  0  0
 10 15  1  0  0  0
 11 16  1  0  0  0
 13 20  1  0  0  0
 13 27  1  0  0  0
 14 18  1  0  0  0
 15 21  1  0  0  0
 15 28  1  0  0  0
 18 22  2  0  0  0
 18 23  1  0  0  0
 20 21  1  0  0  0
 22 25  1  0  0  0
 23 24  2  0  0  0
 24 26  1  0  0  0
 25 26  2  0  0  0
M  END
>  <CHROM.0>
-57.25128174,51.21883800,-60.93977500,68.24881803,64.67910827

>  <CHROM.1>
23.75398405,-32.29758746,-14.60137372,152.15304034,134.07895503,-105.08580171
105.82668639,26.22915762,105.50110408,10.20388883,2.52986837,-0.32171648
2.96000779

>  <Name>
93d9afad1980a3c1ec57b88f4aab57f2a6488745b2e84b069771066870150e16

>  <RI>
3.68383e+07

>  <Rbt.Current_Directory>
/sysgen/workspace/users/bioinformatics/2111_DEHAAN_GASDERMIN/VS_SPECS

>  <Rbt.Executable>
rbdock ($Id: //depot/dev/client3/rdock/2013.1/src/exe/rbdock.cxx#4 $)

>  <Rbt.Library>
libRbt.so (2013.1, Build901 2013/11/27)

>  <Rbt.Parameter_File>
/home/sruizcarmona/SOFT/GADI/rdock/rDock_2020.GADI/data/scripts/dock.prm

>  <Rbt.Receptor>
gasd_rdock_free.prm

>  <SCORE>
-35.4842

>  <SCORE.INTER>
-34.8717

>  <SCORE.INTER.CONST>
1

>  <SCORE.INTER.POLAR>
-4.50688

>  <SCORE.INTER.REPUL>
0

>  <SCORE.INTER.ROT>
7

>  <SCORE.INTER.VDW>
-31.9483

>  <SCORE.INTER.norm>
-1.34122

>  <SCORE.INTRA>
2.89197

>  <SCORE.INTRA.DIHEDRAL>
2.82488

>  <SCORE.INTRA.DIHEDRAL.0>
10.6954

>  <SCORE.INTRA.POLAR>
0

>  <SCORE.INTRA.POLAR.0>
0

>  <SCORE.INTRA.REPUL>
0

>  <SCORE.INTRA.REPUL.0>
0

>  <SCORE.INTRA.VDW>
1.47953

>  <SCORE.INTRA.VDW.0>
-1.36269

>  <SCORE.INTRA.norm>
0.11123

>  <SCORE.RESTR>
0

>  <SCORE.RESTR.CAVITY>
0

>  <SCORE.RESTR.norm>
0

>  <SCORE.SYSTEM>
-3.50446

>  <SCORE.SYSTEM.CONST>
0

>  <SCORE.SYSTEM.DIHEDRAL>
0.861773

>  <SCORE.SYSTEM.POLAR>
-1.58252

>  <SCORE.SYSTEM.REPUL>
0.677729

>  <SCORE.SYSTEM.VDW>
-1.94341

>  <SCORE.SYSTEM.norm>
-0.134787

>  <SCORE.heavy>
26

>  <SCORE.norm>
-1.36478

$$$$
4f6ceff55b4942fded46ac68d9fd565238401d5a61b5be9e6a6cbca0fecac266
  rDOCK(R)          3D
libRbt.so/2013.1/901 2013/11/27
 25 27  0  0  0  0  0  0  0  0999 V2000
   29.1135  103.6019   10.8238 O   0  0  0  0  0  0
   29.2193  104.7551   10.1095 C   0  0  0  0  0  0
   28.0406  105.3612    9.9284 N   0  0  0  0  0  0
   22.1300  103.7753   11.6540 C   0  0  0  0  0  0
   20.8649  103.3006   11.4523 N   0  0  0  0  0  0
   27.7785  103.5442   11.0673 C   0  0  0  0  0  0
   27.1021  104.5714   10.5532 N   0  0  0  0  0  0
   23.2327  102.9208   11.3986 N   0  0  0  0  0  0
   22.2350  105.0351   12.0847 N   0  0  0  0  0  0
   20.9389  105.4055   12.1698 N   0  0  0  0  0  0
   20.1731  104.3796   11.7972 C   0  0  0  0  0  0
   24.5432  103.1621   11.5905 C   0  0  0  0  0  0
   30.5400  105.1786    9.6459 C   0  0  0  0  0  0
   27.1296  102.1882   11.9907 S   0  0  0  0  0  0
   25.0080  104.2169   12.0219 O   0  0  0  0  0  0
   31.6437  104.3038    9.7622 C   0  0  0  0  0  0
   30.7333  106.4592    9.0783 C   0  0  0  0  0  0
   25.4917  102.0254   11.2153 C   0  0  0  0  0  0
   33.1041  105.9789    8.7545 C   0  0  0  0  0  0
   32.0097  106.8572    8.6347 C   0  0  0  0  0  0
   32.9197  104.7022    9.3186 C   0  0  0  0  0  0
   34.3415  106.3616    8.3259 O   0  0  0  0  0  0
   22.9942  102.0090   11.0378 H   0  0  0  0  0  0
   20.6428  106.3227   12.4721 H   0  0  0  0  0  0
   35.0173  105.7330    8.5281 H   0  0  0  0  0  0
  1  2  1  0  0  0
  1  6  1  0  0  0
  2  3  2  0  0  0
  2 13  1  0  0  0
  3  7  1  0  0  0
  4  8  1  0  0  0
  4  5  1  0  0  0
  4  9  2  0  0  0
  5 11  2  0  0  0
  6  7  2  0  0  0
  6 14  1  0  0  0
  8 12  1  0  0  0
  8 23  1  0  0  0
  9 10  1  0  0  0
 10 11  1  0  0  0
 10 24  1  0  0  0
 12 18  1  0  0  0
 12 15  2  0  0  0
 13 16  2  0  0  0
 13 17  1  0  0  0
 14 18  1  0  0  0
 16 21  1  0  0  0
 17 20  2  0  0  0
 19 20  1  0  0  0
 19 22  1  0  0  0
 19 21  2  0  0  0
 22 25  1  0  0  0
M  END
>  <CHROM.0>
62.76491625,60.81177638,60.00577920,-172.45505573,177.93633992

>  <CHROM.1>
9.55955809,-176.48588776,-147.66709090,-160.93400185,-71.78371953,174.42851283
27.16340901,104.32526746,10.70209843,-0.24389894,-0.18636660,2.77216894

>  <Name>
4f6ceff55b4942fded46ac68d9fd565238401d5a61b5be9e6a6cbca0fecac266

>  <RI>
4.01479e+07

>  <Rbt.Current_Directory>
/sysgen/workspace/users/bioinformatics/2111_DEHAAN_GASDERMIN/VS_SPECS

>  <Rbt.Executable>
rbdock ($Id: //depot/dev/client3/rdock/2013.1/src/exe/rbdock.cxx#4 $)

>  <Rbt.Library>
libRbt.so (2013.1, Build901 2013/11/27)

>  <Rbt.Parameter_File>
/home/sruizcarmona/SOFT/GADI/rdock/rDock_2020.GADI/data/scripts/dock.prm

>  <Rbt.Receptor>
gasd_rdock_free.prm

>  <SCORE>
-30.1774

>  <SCORE.INTER>
-29.0037

>  <SCORE.INTER.CONST>
1

>  <SCORE.INTER.POLAR>
-4.40272

>  <SCORE.INTER.REPUL>
0.0471917

>  <SCORE.INTER.ROT>
5

>  <SCORE.INTER.VDW>
-24.6704

>  <SCORE.INTER.norm>
-1.31835

>  <SCORE.INTRA>
0.861571

>  <SCORE.INTRA.DIHEDRAL>
1.89796

>  <SCORE.INTRA.DIHEDRAL.0>
1.33994

>  <SCORE.INTRA.POLAR>
0

>  <SCORE.INTRA.POLAR.0>
0

>  <SCORE.INTRA.REPUL>
0

>  <SCORE.INTRA.REPUL.0>
0

>  <SCORE.INTRA.VDW>
-0.0874109

>  <SCORE.INTRA.VDW.0>
-0.990649

>  <SCORE.INTRA.norm>
0.0391623

>  <SCORE.RESTR>
0

>  <SCORE.RESTR.CAVITY>
0

>  <SCORE.RESTR.norm>
0

>  <SCORE.SYSTEM>
-2.03531

>  <SCORE.SYSTEM.CONST>
0

>  <SCORE.SYSTEM.DIHEDRAL>
0.348378

>  <SCORE.SYSTEM.POLAR>
-0.303724

>  <SCORE.SYSTEM.REPUL>
0.173648

>  <SCORE.SYSTEM.VDW>
-2.04508

>  <SCORE.SYSTEM.norm>
-0.0925142

>  <SCORE.heavy>
22

>  <SCORE.norm>
-1.3717

$$$$
25ff1f9a3d2fd672e75d1a80bdc0980bdd43cdbdac2fd3d090308594114f51d0
  rDOCK(R)          3D
libRbt.so/2013.1/901 2013/11/27
 22 24  0  0  0  0  0  0  0  0999 V2000
   25.9491  103.9465   11.5115 N   0  0  0  0  0  0
   29.2875  105.7727    9.0378 C   0  0  0  0  0  0
   30.5260  106.3167    9.2163 N   0  0  0  0  0  0
   26.9260  103.2765   10.9707 C   0  0  0  0  0  0
   24.6457  103.4233   11.5099 C   0  0  0  0  0  0
   24.4445  102.1124   10.8817 C   0  0  0  0  0  0
   30.4904  107.6978    9.0088 C   0  0  0  0  0  0
   26.7588  102.0317   10.3696 N   0  0  0  0  0  0
   29.1521  108.0036    8.6915 C   0  0  0  0  0  0
   25.4957  101.4686   10.3392 C   0  0  0  0  0  0
   28.6554  103.8671   10.9200 S   0  0  0  0  0  0
   28.9332  104.3232    9.1769 C   0  0  0  0  0  0
   23.7054  104.0343   12.0132 O   0  0  0  0  0  0
   31.8061  105.6976    9.5724 C   0  0  0  0  0  0
   31.4742  108.6832    9.0674 C   0  0  0  0  0  0
   28.7356  109.3032    8.4190 C   0  0  0  0  0  0
   25.3873  100.1143    9.6699 C   0  0  0  0  0  0
   31.0644  110.0051    8.7927 C   0  0  0  0  0  0
   29.7239  110.3087    8.4753 C   0  0  0  0  0  0
   27.5127  101.5100    9.9494 H   0  0  0  0  0  0
   28.4456  106.8005    8.7214 N   0  3  0  0  0  0
   27.4579  106.6788    8.5367 H   0  0  0  0  0  0
  1  4  2  0  0  0
  1  5  1  0  0  0
  2 12  1  0  0  0
  2  3  1  0  0  0
  2 21  2  0  0  0
  3  7  1  0  0  0
  3 14  1  0  0  0
  4  8  1  0  0  0
  4 11  1  0  0  0
  5  6  1  0  0  0
  5 13  2  0  0  0
  6 10  2  0  0  0
  7 15  1  0  0  0
  7  9  2  0  0  0
  8 10  1  0  0  0
  8 20  1  0  0  0
  9 16  1  0  0  0
  9 21  1  0  0  0
 10 17  1  0  0  0
 11 12  1  0  0  0
 15 18  2  0  0  0
 16 19  2  0  0  0
 18 19  1  0  0  0
 21 22  1  0  0  0
M  END
>  <CHROM.0>
-57.92972077,-71.40875590,-179.81251146,64.61575209,61.96020514

>  <CHROM.1>
82.15038745,-107.57211882,119.72318758,28.08564745,105.20054403,9.90458225
2.24460340,-0.24170211,3.01361697

>  <Name>
25ff1f9a3d2fd672e75d1a80bdc0980bdd43cdbdac2fd3d090308594114f51d0

>  <RI>
2.75322e+07

>  <Rbt.Current_Directory>
/sysgen/workspace/users/bioinformatics/2111_DEHAAN_GASDERMIN/VS_SPECS

>  <Rbt.Executable>
rbdock ($Id: //depot/dev/client3/rdock/2013.1/src/exe/rbdock.cxx#4 $)

>  <Rbt.Library>
libRbt.so (2013.1, Build901 2013/11/27)

>  <Rbt.Parameter_File>
/home/sruizcarmona/SOFT/GADI/rdock/rDock_2020.GADI/data/scripts/dock.prm

>  <Rbt.Receptor>
gasd_rdock_free.prm

>  <SCORE>
-36.4438

>  <SCORE.INTER>
-26.0889

>  <SCORE.INTER.CONST>
1

>  <SCORE.INTER.POLAR>
-3.66899

>  <SCORE.INTER.REPUL>
0

>  <SCORE.INTER.ROT>
3

>  <SCORE.INTER.VDW>
-22.0143

>  <SCORE.INTER.norm>
-1.30444

>  <SCORE.INTRA>
-1.11107

>  <SCORE.INTRA.DIHEDRAL>
2.39501

>  <SCORE.INTRA.DIHEDRAL.0>
3.32991

>  <SCORE.INTRA.POLAR>
0

>  <SCORE.INTRA.POLAR.0>
0

>  <SCORE.INTRA.REPUL>
0

>  <SCORE.INTRA.REPUL.0>
0

>  <SCORE.INTRA.VDW>
-2.30857

>  <SCORE.INTRA.VDW.0>
1.14492

>  <SCORE.INTRA.norm>
-0.0555534

>  <SCORE.RESTR>
0

>  <SCORE.RESTR.CAVITY>
0

>  <SCORE.RESTR.norm>
0

>  <SCORE.SYSTEM>
-9.24384

>  <SCORE.SYSTEM.CONST>
0

>  <SCORE.SYSTEM.DIHEDRAL>
0.775915

>  <SCORE.SYSTEM.POLAR>
-2.45807

>  <SCORE.SYSTEM.REPUL>
0.00404233

>  <SCORE.SYSTEM.VDW>
-1.29456

>  <SCORE.SYSTEM.norm>
-0.462192

>  <SCORE.heavy>
20

>  <SCORE.norm>
-1.82219

$$$$
34e5c3136ef4473281dcce60b33be3dbc658f589ee8716962a9ae63e93571f04
  rDOCK(R)          3D
libRbt.so/2013.1/901 2013/11/27
 27 29  0  0  0  0  0  0  0  0999 V2000
   22.5071  103.7228   11.7369 N   0  0  0  0  0  0
   22.1910  104.9864   12.1100 N   0  0  0  0  0  0
   23.8451  103.3442   11.4480 C   0  0  0  0  0  0
   24.8500  104.1788   11.8123 N   0  0  0  0  0  0
   21.3743  102.9306   11.6924 C   0  0  0  0  0  0
   26.1274  103.8715   11.5643 N   0  0  0  0  0  0
   20.3070  103.7054   12.0456 C   0  0  0  0  0  0
   20.8808  104.9822   12.2956 C   0  0  0  0  0  0
   30.4292  106.2908    9.3632 C   0  0  0  0  0  0
   26.4504  102.7166   10.9412 C   0  0  0  0  0  0
   24.1191  102.1205   10.7938 C   0  0  0  0  0  0
   29.9527  106.3027    8.2287 O   0  0  0  0  0  0
   30.3024  105.2530   10.2033 N   0  0  0  0  0  0
   31.2042  107.5047    9.8807 C   0  0  0  0  0  0
   27.8225  102.5137   10.7406 N   0  0  0  0  0  0
   25.4612  101.7953   10.5324 C   0  0  0  0  0  0
   30.7375  108.7803    9.1982 C   0  0  0  0  0  0
   20.1920  106.2448   12.7217 C   0  0  0  0  0  0
   29.6082  104.0152    9.8818 C   0  0  0  0  0  0
   28.8166  103.5153   11.0994 C   0  0  0  0  0  0
   29.3898  108.9245    8.8040 C   0  0  0  0  0  0
   31.6517  109.8272    8.9515 C   0  0  0  0  0  0
   31.2204  111.0103    8.3206 C   0  0  0  0  0  0
   28.9594  110.1081    8.1731 C   0  0  0  0  0  0
   29.8743  111.1511    7.9317 C   0  0  0  0  0  0
   30.7272  105.3230   11.1166 H   0  0  0  0  0  0
   28.1389  101.6072   10.4275 H   0  0  0  0  0  0
  1  2  1  0  0  0
  1  3  1  0  0  0
  1  5  1  0  0  0
  2  8  2  0  0  0
  3  4  1  0  0  0
  3 11  2  0  0  0
  4  6  2  0  0  0
  5  7  2  0  0  0
  6 10  1  0  0  0
  7  8  1  0  0  0
  8 18  1  0  0  0
  9 13  1  0  0  0
  9 12  2  0  0  0
  9 14  1  0  0  0
 10 16  2  0  0  0
 10 15  1  0  0  0
 11 16  1  0  0  0
 13 19  1  0  0  0
 13 26  1  0  0  0
 14 17  1  0  0  0
 15 20  1  0  0  0
 15 27  1  0  0  0
 17 21  2  0  0  0
 17 22  1  0  0  0
 19 20  1  0  0  0
 21 24  1  0  0  0
 22 23  2  0  0  0
 23 25  1  0  0  0
 24 25  2  0  0  0
M  END
>  <CHROM.0>
-59.81548531,-71.35422226,178.27895841,64.32714059,62.88276124

>  <CHROM.1>
13.54137645,27.02811588,-3.84400481,-140.93969963,32.80817099,-118.06257070
163.87712337,26.74938714,105.56311448,10.42731653,2.57704164,-0.24406766
2.95787800

>  <Name>
34e5c3136ef4473281dcce60b33be3dbc658f589ee8716962a9ae63e93571f04

>  <RI>
3.78992e+07

>  <Rbt.Current_Directory>
/sysgen/workspace/users/bioinformatics/2111_DEHAAN_GASDERMIN/VS_SPECS

>  <Rbt.Executable>
rbdock ($Id: //depot/dev/client3/rdock/2013.1/src/exe/rbdock.cxx#4 $)

>  <Rbt.Library>
libRbt.so (2013.1, Build901 2013/11/27)

>  <Rbt.Parameter_File>
/home/sruizcarmona/SOFT/GADI/rdock/rDock_2020.GADI/data/scripts/dock.prm

>  <Rbt.Receptor>
gasd_rdock_free.prm

>  <SCORE>
-39.8895

>  <SCORE.INTER>
-32.4901

>  <SCORE.INTER.CONST>
1

>  <SCORE.INTER.POLAR>
-4.42454

>  <SCORE.INTER.REPUL>
0.0251533

>  <SCORE.INTER.ROT>
7

>  <SCORE.INTER.VDW>
-29.9724

>  <SCORE.INTER.norm>
-1.2996

>  <SCORE.INTRA>
1.84132

>  <SCORE.INTRA.DIHEDRAL>
1.29817

>  <SCORE.INTRA.DIHEDRAL.0>
6.08708

>  <SCORE.INTRA.POLAR>
0

>  <SCORE.INTRA.POLAR.0>
0

>  <SCORE.INTRA.REPUL>
0

>  <SCORE.INTRA.REPUL.0>
0

>  <SCORE.INTRA.VDW>
1.19223

>  <SCORE.INTRA.VDW.0>
-1.09925

>  <SCORE.INTRA.norm>
0.0736528

>  <SCORE.RESTR>
0

>  <SCORE.RESTR.CAVITY>
0

>  <SCORE.RESTR.norm>
0

>  <SCORE.SYSTEM>
-9.2407

>  <SCORE.SYSTEM.CONST>
0

>  <SCORE.SYSTEM.DIHEDRAL>
0.772998

>  <SCORE.SYSTEM.POLAR>
-2.43582

>  <SCORE.SYSTEM.REPUL>
0.000912254

>  <SCORE.SYSTEM.VDW>
-1.34996

>  <SCORE.SYSTEM.norm>
-0.369628

>  <SCORE.heavy>
25

>  <SCORE.norm>
-1.59558

$$$$
f32bda260eaf62ff7a1a2b52a18b1d099cca760de070adb4179e0b71d4264aad
  rDOCK(R)          3D
libRbt.so/2013.1/901 2013/11/27
 26 28  0  0  0  0  0  0  0  0999 V2000
   24.8754  102.3684   10.8114 N   0  0  0  0  0  0
   24.2115  103.3779   11.4229 C   0  0  0  0  0  0
   25.0364  104.3223   11.8932 N   0  0  0  0  0  0
   26.1592  102.7643   10.9240 C   0  0  0  0  0  0
   26.3101  103.9210   11.5655 N   0  0  0  0  0  0
   22.7586  103.4882   11.5539 C   0  0  0  0  0  0
   27.5093  101.8387   10.2782 S   0  0  0  0  0  0
   28.9509  104.2285   10.1769 C   0  0  0  0  0  0
   22.2441  104.7257   11.7542 N   0  0  0  0  0  0
   29.9069  105.0674   10.6187 N   0  0  0  0  0  0
   29.7906  108.1354    8.5078 C   0  0  0  0  0  0
   30.2434  106.3656   10.1473 C   0  0  0  0  0  0
   29.5114  106.8627    9.0495 C   0  0  0  0  0  0
   30.8264  108.9217    9.0660 C   0  0  0  0  0  0
   20.5722  102.4484   11.5610 N   0  0  0  0  0  0
   28.2070  104.4510    9.2227 O   0  0  0  0  0  0
   28.8429  102.8948   10.9133 C   0  0  0  0  0  0
   24.3548  101.1555   10.2000 C   0  0  0  0  0  0
   31.5706  108.4204   10.1538 C   0  0  0  0  0  0
   21.9163  102.3552   11.4510 C   0  0  0  0  0  0
   31.2873  107.1505   10.6904 C   0  0  0  0  0  0
   20.9002  104.8194   11.8637 C   0  0  0  0  0  0
   20.0674  103.6845   11.7694 C   0  0  0  0  0  0
   28.9733  108.6392    7.3313 C   0  0  0  0  0  0
   31.1548  110.2956    8.5088 C   0  0  0  0  0  0
   30.4953  104.7099   11.3569 H   0  0  0  0  0  0
  1  2  1  0  0  0
  1  4  1  0  0  0
  1 18  1  0  0  0
  2  3  2  0  0  0
  2  6  1  0  0  0
  3  5  1  0  0  0
  4  5  2  0  0  0
  4  7  1  0  0  0
  6  9  2  0  0  0
  6 20  1  0  0  0
  7 17  1  0  0  0
  8 17  1  0  0  0
  8 10  1  0  0  0
  8 16  2  0  0  0
  9 22  1  0  0  0
 10 12  1  0  0  0
 10 26  1  0  0  0
 11 13  1  0  0  0
 11 24  1  0  0  0
 11 14  2  0  0  0
 12 13  2  0  0  0
 12 21  1  0  0  0
 14 19  1  0  0  0
 14 25  1  0  0  0
 15 20  2  0  0  0
 15 23  1  0  0  0
 19 21  2  0  0  0
 22 23  2  0  0  0
M  END
>  <CHROM.0>
-59.55737183,-72.31572439,-59.68156350,66.19222783,179.87492686

>  <CHROM.1>
-157.34784612,-175.83528502,-72.22562764,178.82044673,-1.38625395,26.70096563
104.73688090,10.43012069,-2.58503891,0.16436599,-0.17046225

>  <Name>
f32bda260eaf62ff7a1a2b52a18b1d099cca760de070adb4179e0b71d4264aad

>  <RI>
2.17568e+07

>  <Rbt.Current_Directory>
/sysgen/workspace/users/bioinformatics/2111_DEHAAN_GASDERMIN/VS_SPECS

>  <Rbt.Executable>
rbdock ($Id: //depot/dev/client3/rdock/2013.1/src/exe/rbdock.cxx#4 $)

>  <Rbt.Library>
libRbt.so (2013.1, Build901 2013/11/27)

>  <Rbt.Parameter_File>
/home/sruizcarmona/SOFT/GADI/rdock/rDock_2020.GADI/data/scripts/dock.prm

>  <Rbt.Receptor>
gasd_rdock_free.prm

>  <SCORE>
-41.4245

>  <SCORE.INTER>
-30.8458

>  <SCORE.INTER.CONST>
1

>  <SCORE.INTER.POLAR>
-4.20536

>  <SCORE.INTER.REPUL>
0

>  <SCORE.INTER.ROT>
5

>  <SCORE.INTER.VDW>
-26.9476

>  <SCORE.INTER.norm>
-1.23383

>  <SCORE.INTRA>
-2.71686

>  <SCORE.INTRA.DIHEDRAL>
-9.57755

>  <SCORE.INTRA.DIHEDRAL.0>
12.8915

>  <SCORE.INTRA.POLAR>
0

>  <SCORE.INTRA.POLAR.0>
0

>  <SCORE.INTRA.REPUL>
0

>  <SCORE.INTRA.REPUL.0>
0

>  <SCORE.INTRA.VDW>
2.07191

>  <SCORE.INTRA.VDW.0>
-1.88804

>  <SCORE.INTRA.norm>
-0.108674

>  <SCORE.RESTR>
0

>  <SCORE.RESTR.CAVITY>
0

>  <SCORE.RESTR.norm>
0

>  <SCORE.SYSTEM>
-7.86186

>  <SCORE.SYSTEM.CONST>
0

>  <SCORE.SYSTEM.DIHEDRAL>
0.919375

>  <SCORE.SYSTEM.POLAR>
-2.20601

>  <SCORE.SYSTEM.REPUL>
0.00821953

>  <SCORE.SYSTEM.VDW>
-0.862209

>  <SCORE.SYSTEM.norm>
-0.314474

>  <SCORE.heavy>
25

>  <SCORE.norm>
-1.65698

$$$$
873178db933a814a80afb61f6d5891500c8f8784f4913b27d2c3fab10b62ff4f
     RDKit          3D

 24 26  0  0  0  0  0  0  0  0999 V2000
   22.3619  103.7180   11.8847 N   0  0  0  0  0  0  0  0  0  0  0  0
   22.1030  105.0448   11.9761 N   0  0  0  0  0  0  0  0  0  0  0  0
   23.6914  103.2198   11.8444 C   0  0  0  0  0  0  0  0  0  0  0  0
   24.7183  104.1053   11.8645 N   0  0  0  0  0  0  0  0  0  0  0  0
   21.1844  102.9939   11.8415 C   0  0  0  0  0  0  0  0  0  0  0  0
   25.9889  103.6906   11.8282 N   0  0  0  0  0  0  0  0  0  0  0  0
   20.1462  103.8782   11.9067 C   0  0  0  0  0  0  0  0  0  0  0  0
   31.3310  103.0773    9.2506 C   0  0  0  0  0  0  0  0  0  0  0  0
   20.7837  105.1466   11.9896 C   0  0  0  0  0  0  0  0  0  0  0  0
   26.2828  102.3728   11.7698 C   0  0  0  0  0  0  0  0  0  0  0  0
   23.9344  101.8277   11.7844 C   0  0  0  0  0  0  0  0  0  0  0  0
   30.9063  102.1364    8.5790 O   0  0  0  0  0  0  0  0  0  0  0  0
   32.3332  104.0411    8.6817 C   0  0  0  0  0  0  0  0  0  0  0  0
   30.9941  103.2802   10.5346 N   0  0  0  0  0  0  0  0  0  0  0  0
   27.6509  102.0704   11.7358 N   0  0  0  0  0  0  0  0  0  0  0  0
   25.2692  101.3895   11.7464 C   0  0  0  0  0  0  0  0  0  0  0  0
   20.1495  106.5026   12.0848 C   0  0  0  0  0  0  0  0  0  0  0  0
   30.0688  102.4485   11.2930 C   0  0  0  0  0  0  0  0  0  0  0  0
   32.5839  104.0560    7.2909 C   0  0  0  0  0  0  0  0  0  0  0  0
   33.0067  104.9688    9.5118 C   0  0  0  0  0  0  0  0  0  0  0  0
   28.6418  103.0231   11.2561 C   0  0  0  0  0  0  0  0  0  0  0  0
   33.5069  104.9668    6.7410 C   0  0  0  0  0  0  0  0  0  0  0  0
   33.9293  105.8793    8.9604 C   0  0  0  0  0  0  0  0  0  0  0  0
   34.1816  105.8773    7.5756 C   0  0  0  0  0  0  0  0  0  0  0  0
  1  2  1  0
  1  3  1  0
  1  5  1  0
  2  9  2  0
  3  4  2  0
  3 11  1  0
  4  6  1  0
  5  7  2  0
  6 10  2  0
  7  9  1  0
  8 14  1  0
  8 12  2  0
  8 13  1  0
  9 17  1  0
 10 16  1  0
 10 15  1  0
 11 16  2  0
 13 19  2  0
 13 20  1  0
 14 18  1  0
 15 21  1  0
 18 21  1  0
 19 22  1  0
 20 23  2  0
 22 24  2  0
 23 24  1  0
M  END
>  <CHROM.0>  (1) 
-59.39447166,-70.68703560,-176.97205546,-174.93682573,-51.39410499

>  <CHROM.1>  (1) 
-1.68043071,13.65980395,-24.03002205,-94.40249566,-178.94574452,166.84140516
27.31447342,103.72836366,10.59929690,3.00817788,-0.27700898,2.75872828

>  <Name>  (1) 
873178db933a814a80afb61f6d5891500c8f8784f4913b27d2c3fab10b62ff4f

>  <RI>  (1) 
3.78992e+07

>  <Rbt.Current_Directory>  (1) 
/sysgen/workspace/users/bioinformatics/2111_DEHAAN_GASDERMIN/VS_SPECS

>  <Rbt.Executable>  (1) 
rbdock ($Id: //depot/dev/client3/rdock/2013.1/src/exe/rbdock.cxx#4 $)

>  <Rbt.Library>  (1) 
libRbt.so (2013.1, Build901 2013/11/27)

>  <Rbt.Parameter_File>  (1) 
/home/sruizcarmona/SOFT/GADI/rdock/rDock_2020.GADI/data/scripts/dock.prm

>  <Rbt.Receptor>  (1) 
gasd_rdock_free.prm

>  <SCORE>  (1) 
-33.6992

>  <SCORE.INTER>  (1) 
-28.1726

>  <SCORE.INTER.CONST>  (1) 
1

>  <SCORE.INTER.POLAR>  (1) 
-3.8454

>  <SCORE.INTER.REPUL>  (1) 
0

>  <SCORE.INTER.ROT>  (1) 
6

>  <SCORE.INTER.VDW>  (1) 
-26.4982

>  <SCORE.INTER.norm>  (1) 
-1.17386

>  <SCORE.INTRA>  (1) 
0.861605

>  <SCORE.INTRA.DIHEDRAL>  (1) 
-0.167615

>  <SCORE.INTRA.DIHEDRAL.0>  (1) 
7.35496

>  <SCORE.INTRA.POLAR>  (1) 
0

>  <SCORE.INTRA.POLAR.0>  (1) 
0

>  <SCORE.INTRA.REPUL>  (1) 
0

>  <SCORE.INTRA.REPUL.0>  (1) 
0

>  <SCORE.INTRA.VDW>  (1) 
0.945412

>  <SCORE.INTRA.VDW.0>  (1) 
-0.776717

>  <SCORE.INTRA.norm>  (1) 
0.0359002

>  <SCORE.RESTR>  (1) 
0

>  <SCORE.RESTR.CAVITY>  (1) 
0

>  <SCORE.RESTR.norm>  (1) 
0

>  <SCORE.SYSTEM>  (1) 
-6.38816

>  <SCORE.SYSTEM.CONST>  (1) 
0

>  <SCORE.SYSTEM.DIHEDRAL>  (1) 
1.08892

>  <SCORE.SYSTEM.POLAR>  (1) 
-1.852

>  <SCORE.SYSTEM.REPUL>  (1) 
0.037366

>  <SCORE.SYSTEM.VDW>  (1) 
-0.822645

>  <SCORE.SYSTEM.norm>  (1) 
-0.266173

>  <SCORE.heavy>  (1) 
24

>  <SCORE.norm>  (1) 
-1.40413

$$$$
efef8bd765b856917fae7d619b09d0c49f538a20e2484214bf3c784baa761b46
     RDKit          3D

 26 28  0  0  0  0  0  0  0  0999 V2000
   25.2157  102.2715   10.7967 N   0  0  0  0  0  0  0  0  0  0  0  0
   24.3818  103.1706   11.3675 C   0  0  0  0  0  0  0  0  0  0  0  0
   25.0289  104.2282   11.8685 N   0  0  0  0  0  0  0  0  0  0  0  0
   26.4206  102.8564   10.9541 C   0  0  0  0  0  0  0  0  0  0  0  0
   26.3606  104.0260   11.5937 N   0  0  0  0  0  0  0  0  0  0  0  0
   27.9094  102.1100   10.3582 S   0  0  0  0  0  0  0  0  0  0  0  0
   22.9298  103.0428   11.4545 C   0  0  0  0  0  0  0  0  0  0  0  0
   29.1433  104.6104   10.2653 C   0  0  0  0  0  0  0  0  0  0  0  0
   30.1654  105.4393   10.5496 N   0  0  0  0  0  0  0  0  0  0  0  0
   28.2259  104.8675    9.4869 O   0  0  0  0  0  0  0  0  0  0  0  0
   29.1389  103.2794   11.0141 C   0  0  0  0  0  0  0  0  0  0  0  0
   22.1313  104.1402   11.8380 C   0  0  0  0  0  0  0  0  0  0  0  0
   22.3122  101.8093   11.1613 C   0  0  0  0  0  0  0  0  0  0  0  0
   24.9043  100.9949   10.1734 C   0  0  0  0  0  0  0  0  0  0  0  0
   30.4442  106.7268   10.0156 C   0  0  0  0  0  0  0  0  0  0  0  0
   30.8516  109.2846    8.8763 C   0  0  0  0  0  0  0  0  0  0  0  0
   20.1062  102.7770   11.6233 C   0  0  0  0  0  0  0  0  0  0  0  0
   20.9125  101.6750   11.2428 C   0  0  0  0  0  0  0  0  0  0  0  0
   20.7322  104.0050   11.9191 C   0  0  0  0  0  0  0  0  0  0  0  0
   31.1029  110.8418    8.1774 Cl  0  0  0  0  0  0  0  0  0  0  0  0
   29.6427  107.1672    8.9411 C   0  0  0  0  0  0  0  0  0  0  0  0
   31.4425  107.5897   10.5308 C   0  0  0  0  0  0  0  0  0  0  0  0
   29.8478  108.4379    8.3695 C   0  0  0  0  0  0  0  0  0  0  0  0
   31.6460  108.8606    9.9585 C   0  0  0  0  0  0  0  0  0  0  0  0
   18.7325  102.7333   11.7279 O   0  0  0  0  0  0  0  0  0  0  0  0
   17.9809  102.4648   10.5533 C   0  0  0  0  0  0  0  0  0  0  0  0
  1  2  1  0
  1  4  1  0
  1 14  1  0
  2  3  2  0
  2  7  1  0
  3  5  1  0
  4  5  2  0
  4  6  1  0
  6 11  1  0
  7 12  2  0
  7 13  1  0
  8 11  1  0
  8  9  1  0
  8 10  2  0
  9 15  1  0
 12 19  1  0
 13 18  2  0
 15 21  1  0
 15 22  2  0
 16 24  2  0
 16 20  1  0
 16 23  1  0
 17 19  2  0
 17 25  1  0
 17 18  1  0
 21 23  2  0
 22 24  1  0
 25 26  1  0
M  END
>  <CHROM.0>  (1) 
-57.22076301,-70.82636806,-177.97405923,67.48099834,64.38938716

>  <CHROM.1>  (1) 
-167.89323340,-174.75158914,-72.83342261,-169.65519839,-7.44552187,-62.85860568
26.38092606,104.78085544,10.42787058,-2.56838551,0.08220024,-0.22157693

>  <Name>  (1) 
efef8bd765b856917fae7d619b09d0c49f538a20e2484214bf3c784baa761b46

>  <RI>  (1) 
3.70882e+07

>  <Rbt.Current_Directory>  (1) 
/sysgen/workspace/users/bioinformatics/2111_DEHAAN_GASDERMIN/VS_SPECS

>  <Rbt.Executable>  (1) 
rbdock ($Id: //depot/dev/client3/rdock/2013.1/src/exe/rbdock.cxx#4 $)

>  <Rbt.Library>  (1) 
libRbt.so (2013.1, Build901 2013/11/27)

>  <Rbt.Parameter_File>  (1) 
/home/sruizcarmona/SOFT/GADI/rdock/rDock_2020.GADI/data/scripts/dock.prm

>  <Rbt.Receptor>  (1) 
gasd_rdock_free.prm

>  <SCORE>  (1) 
-35.404

>  <SCORE.INTER>  (1) 
-24.6666

>  <SCORE.INTER.CONST>  (1) 
1

>  <SCORE.INTER.POLAR>  (1) 
-2.71013

>  <SCORE.INTER.REPUL>  (1) 
0

>  <SCORE.INTER.ROT>  (1) 
6

>  <SCORE.INTER.VDW>  (1) 
-26.8522

>  <SCORE.INTER.norm>  (1) 
-0.948716

>  <SCORE.INTRA>  (1) 
-1.53031

>  <SCORE.INTRA.DIHEDRAL>  (1) 
-4.39545

>  <SCORE.INTRA.DIHEDRAL.0>  (1) 
10.5853

>  <SCORE.INTRA.POLAR>  (1) 
0

>  <SCORE.INTRA.POLAR.0>  (1) 
0

>  <SCORE.INTRA.REPUL>  (1) 
0

>  <SCORE.INTRA.REPUL.0>  (1) 
0

>  <SCORE.INTRA.VDW>  (1) 
0.667413

>  <SCORE.INTRA.VDW.0>  (1) 
0.379182

>  <SCORE.INTRA.norm>  (1) 
-0.0588581

>  <SCORE.RESTR>  (1) 
0.00192102

>  <SCORE.RESTR.CAVITY>  (1) 
0.00192102

>  <SCORE.RESTR.norm>  (1) 
7.38852e-05

>  <SCORE.SYSTEM>  (1) 
-9.20894

>  <SCORE.SYSTEM.CONST>  (1) 
0

>  <SCORE.SYSTEM.DIHEDRAL>  (1) 
0.996452

>  <SCORE.SYSTEM.POLAR>  (1) 
-2.45691

>  <SCORE.SYSTEM.REPUL>  (1) 
0.00505359

>  <SCORE.SYSTEM.VDW>  (1) 
-1.37893

>  <SCORE.SYSTEM.norm>  (1) 
-0.35419

>  <SCORE.heavy>  (1) 
26

>  <SCORE.norm>  (1) 
-1.36169

$$$$
1b5984aa151c105c5397698625b742abb0174848e3cb2b7938bb0fadaf799bb4
     RDKit          3D

 27 30  0  0  0  0  0  0  0  0999 V2000
   28.1158  102.6811   11.1852 N   0  0  0  0  0  0  0  0  0  0  0  0
   29.0572  101.6406   11.1745 C   0  0  0  0  0  0  0  0  0  0  0  0
   29.7806  104.1358   10.2832 C   0  0  0  0  0  0  0  0  0  0  0  0
   28.4020  103.9420   10.7579 C   0  0  0  0  0  0  0  0  0  0  0  0
   28.2544  100.1641   11.8165 S   0  0  0  0  0  0  0  0  0  0  0  0
   30.2668  101.8234   10.7536 N   0  0  0  0  0  0  0  0  0  0  0  0
   26.8790  102.3543   11.6525 N   0  0  0  0  0  0  0  0  0  0  0  0
   30.6476  103.0890   10.2982 C   0  0  0  0  0  0  0  0  0  0  0  0
   26.7760  101.1281   12.0120 C   0  0  0  0  0  0  0  0  0  0  0  0
   30.1795  105.5167    9.7655 C   0  0  0  0  0  0  0  0  0  0  0  0
   32.0762  103.2406    9.8085 C   0  0  0  0  0  0  0  0  0  0  0  0
   27.5625  104.8442   10.7699 O   0  0  0  0  0  0  0  0  0  0  0  0
   25.2248  100.4917   12.6580 S   0  0  0  0  0  0  0  0  0  0  0  0
   24.1776  103.0133   12.0989 C   0  0  0  0  0  0  0  0  0  0  0  0
   24.8647  104.0263   11.9949 O   0  0  0  0  0  0  0  0  0  0  0  0
   32.2684  104.5048    8.9568 C   0  0  0  0  0  0  0  0  0  0  0  0
   24.4265  102.0210   13.2326 C   0  0  0  0  0  0  0  0  0  0  0  0
   32.0148  106.9744    9.0011 C   0  0  0  0  0  0  0  0  0  0  0  0
   23.2017  102.7244   11.2350 N   0  0  0  0  0  0  0  0  0  0  0  0
   31.5475  108.1802    9.8349 C   0  0  0  0  0  0  0  0  0  0  0  0
   30.8894  109.2416    8.9747 C   0  0  0  0  0  0  0  0  0  0  0  0
   31.5415  110.4710    8.7420 C   0  0  0  0  0  0  0  0  0  0  0  0
   29.6187  109.0066    8.4080 C   0  0  0  0  0  0  0  0  0  0  0  0
   29.0051  109.9943    7.6130 C   0  0  0  0  0  0  0  0  0  0  0  0
   30.9272  111.4581    7.9468 C   0  0  0  0  0  0  0  0  0  0  0  0
   29.6591  111.2200    7.3822 C   0  0  0  0  0  0  0  0  0  0  0  0
   31.6515  105.6775    9.6254 N   0  0  0  0  0  0  0  0  0  0  0  0
  1  2  1  0
  1  4  1  0
  1  7  1  0
  2  5  1  0
  2  6  2  0
  3  4  1  0
  3  8  2  0
  3 10  1  0
  4 12  2  0
  5  9  1  0
  6  8  1  0
  7  9  2  0
  8 11  1  0
  9 13  1  0
 10 27  1  0
 11 16  1  0
 13 17  1  0
 14 17  1  0
 14 15  2  0
 14 19  1  0
 16 27  1  0
 18 20  1  0
 18 27  1  0
 20 21  1  0
 21 22  2  0
 21 23  1  0
 22 25  1  0
 23 24  2  0
 24 26  1  0
 25 26  2  0
M  CHG  1  27   1
M  END
>  <CHROM.0>  (1) 
-56.28250213,-71.36059531,178.69011051,67.33234854,177.21130057

>  <CHROM.1>  (1) 
157.43345804,61.58572627,-106.54364419,-134.52793847,61.32461505,-109.33626825
28.61021297,104.49228868,10.49469459,-2.10707688,0.21444327,-0.30825089

>  <Name>  (1) 
1b5984aa151c105c5397698625b742abb0174848e3cb2b7938bb0fadaf799bb4

>  <RI>  (1) 
1.34542e+07

>  <Rbt.Current_Directory>  (1) 
/sysgen/workspace/users/bioinformatics/2111_DEHAAN_GASDERMIN/VS_SPECS

>  <Rbt.Executable>  (1) 
rbdock ($Id: //depot/dev/client3/rdock/2013.1/src/exe/rbdock.cxx#4 $)

>  <Rbt.Library>  (1) 
libRbt.so (2013.1, Build901 2013/11/27)

>  <Rbt.Parameter_File>  (1) 
/home/sruizcarmona/SOFT/GADI/rdock/rDock_2020.GADI/data/scripts/dock.prm

>  <Rbt.Receptor>  (1) 
gasd_rdock_free.prm

>  <SCORE>  (1) 
-30.3351

>  <SCORE.INTER>  (1) 
-24.4325

>  <SCORE.INTER.CONST>  (1) 
1

>  <SCORE.INTER.POLAR>  (1) 
-2.96219

>  <SCORE.INTER.REPUL>  (1) 
0.0110954

>  <SCORE.INTER.ROT>  (1) 
6

>  <SCORE.INTER.VDW>  (1) 
-25.8165

>  <SCORE.INTER.norm>  (1) 
-0.904908

>  <SCORE.INTRA>  (1) 
1.98175

>  <SCORE.INTRA.DIHEDRAL>  (1) 
4.42722

>  <SCORE.INTRA.DIHEDRAL.0>  (1) 
3.06372

>  <SCORE.INTRA.POLAR>  (1) 
0

>  <SCORE.INTRA.POLAR.0>  (1) 
0

>  <SCORE.INTRA.REPUL>  (1) 
0

>  <SCORE.INTRA.REPUL.0>  (1) 
0

>  <SCORE.INTRA.VDW>  (1) 
-0.231863

>  <SCORE.INTRA.VDW.0>  (1) 
-0.552719

>  <SCORE.INTRA.norm>  (1) 
0.0733981

>  <SCORE.RESTR>  (1) 
0

>  <SCORE.RESTR.CAVITY>  (1) 
0

>  <SCORE.RESTR.norm>  (1) 
0

>  <SCORE.SYSTEM>  (1) 
-7.88427

>  <SCORE.SYSTEM.CONST>  (1) 
0

>  <SCORE.SYSTEM.DIHEDRAL>  (1) 
1.00278

>  <SCORE.SYSTEM.POLAR>  (1) 
-2.22225

>  <SCORE.SYSTEM.REPUL>  (1) 
0.00624199

>  <SCORE.SYSTEM.VDW>  (1) 
-0.861214

>  <SCORE.SYSTEM.norm>  (1) 
-0.29201

>  <SCORE.heavy>  (1) 
27

>  <SCORE.norm>  (1) 
-1.12352

$$$$
3150ef343fe906f7b90f00aa047957a8f6102addd8fb8b997649295320330064
     RDKit          3D

 30 33  0  0  0  0  0  0  0  0999 V2000
   25.0908  102.3061   10.8343 N   0  0  0  0  0  0  0  0  0  0  0  0
   26.3336  102.7981   10.9457 C   0  0  0  0  0  0  0  0  0  0  0  0
   24.2908  103.1909   11.4597 C   0  0  0  0  0  0  0  0  0  0  0  0
   25.0152  104.2083   11.9464 N   0  0  0  0  0  0  0  0  0  0  0  0
   26.3393  103.9570   11.6080 N   0  0  0  0  0  0  0  0  0  0  0  0
   27.7721  101.9920   10.3237 S   0  0  0  0  0  0  0  0  0  0  0  0
   29.0696  104.4226   10.0894 C   0  0  0  0  0  0  0  0  0  0  0  0
   22.8422  103.0990   11.6232 C   0  0  0  0  0  0  0  0  0  0  0  0
   29.9520  105.3583   10.4882 N   0  0  0  0  0  0  0  0  0  0  0  0
   24.7194  101.0786   10.2435 C   0  0  0  0  0  0  0  0  0  0  0  0
   29.0240  103.1530   10.9499 C   0  0  0  0  0  0  0  0  0  0  0  0
   28.3439  104.5264    9.0999 O   0  0  0  0  0  0  0  0  0  0  0  0
   20.7000  104.2095   11.9433 N   0  0  0  0  0  0  0  0  0  0  0  0
   30.2230  106.6304    9.9148 C   0  0  0  0  0  0  0  0  0  0  0  0
   22.0415  104.2500   11.7953 C   0  0  0  0  0  0  0  0  0  0  0  0
   30.8414  109.2073    8.9133 C   0  0  0  0  0  0  0  0  0  0  0  0
   31.2204  107.4163   10.5290 C   0  0  0  0  0  0  0  0  0  0  0  0
   29.5204  107.1543    8.8023 C   0  0  0  0  0  0  0  0  0  0  0  0
   31.5333  108.6950   10.0289 C   0  0  0  0  0  0  0  0  0  0  0  0
   29.8338  108.4336    8.3033 C   0  0  0  0  0  0  0  0  0  0  0  0
   22.1999  101.8429   11.6143 C   0  0  0  0  0  0  0  0  0  0  0  0
   20.0986  103.0011   11.9282 C   0  0  0  0  0  0  0  0  0  0  0  0
   30.4021  102.4741   11.0725 C   0  0  0  0  0  0  0  0  0  0  0  0
   23.6700  101.0419    9.3012 C   0  0  0  0  0  0  0  0  0  0  0  0
   25.3982   99.8911   10.5898 C   0  0  0  0  0  0  0  0  0  0  0  0
   31.1787  110.5815    8.3729 C   0  0  0  0  0  0  0  0  0  0  0  0
   20.8012  101.7909   11.7682 C   0  0  0  0  0  0  0  0  0  0  0  0
   25.0271   98.6702    9.9940 C   0  0  0  0  0  0  0  0  0  0  0  0
   23.3013   99.8197    8.7069 C   0  0  0  0  0  0  0  0  0  0  0  0
   23.9794   98.6345    9.0530 C   0  0  0  0  0  0  0  0  0  0  0  0
  1  2  1  0
  1  3  1  0
  1 10  1  0
  2  5  2  0
  2  6  1  0
  3  4  2  0
  3  8  1  0
  4  5  1  0
  6 11  1  0
  7 11  1  0
  7  9  1  0
  7 12  2  0
  8 15  1  0
  8 21  2  0
  9 14  1  0
 10 24  2  0
 10 25  1  0
 11 23  1  0
 13 15  2  0
 13 22  1  0
 14 17  2  0
 14 18  1  0
 16 19  2  0
 16 26  1  0
 16 20  1  0
 17 19  1  0
 18 20  2  0
 21 27  1  0
 22 27  2  0
 24 29  1  0
 25 28  2  0
 28 30  1  0
 29 30  2  0
M  END
>  <CHROM.0>  (1) 
-57.70991133,-71.66030078,-178.98028546,66.11223941,63.88898768

>  <CHROM.1>  (1) 
-131.05786714,-175.80251430,-154.31112281,-76.92804634,178.84057449,-179.24251173
26.47052172,103.73999136,10.40084365,-2.49139719,0.22195394,0.06003708

>  <Name>  (1) 
3150ef343fe906f7b90f00aa047957a8f6102addd8fb8b997649295320330064

>  <RI>  (1) 
3.97588e+07

>  <Rbt.Current_Directory>  (1) 
/sysgen/workspace/users/bioinformatics/2111_DEHAAN_GASDERMIN/VS_SPECS

>  <Rbt.Executable>  (1) 
rbdock ($Id: //depot/dev/client3/rdock/2013.1/src/exe/rbdock.cxx#4 $)

>  <Rbt.Library>  (1) 
libRbt.so (2013.1, Build901 2013/11/27)

>  <Rbt.Parameter_File>  (1) 
/home/sruizcarmona/SOFT/GADI/rdock/rDock_2020.GADI/data/scripts/dock.prm

>  <Rbt.Receptor>  (1) 
gasd_rdock_free.prm

>  <SCORE>  (1) 
-37.7874

>  <SCORE.INTER>  (1) 
-24.399

>  <SCORE.INTER.CONST>  (1) 
1

>  <SCORE.INTER.POLAR>  (1) 
-2.74321

>  <SCORE.INTER.REPUL>  (1) 
0

>  <SCORE.INTER.ROT>  (1) 
6

>  <SCORE.INTER.VDW>  (1) 
-26.4721

>  <SCORE.INTER.norm>  (1) 
-0.8133

>  <SCORE.INTRA>  (1) 
-4.14369

>  <SCORE.INTRA.DIHEDRAL>  (1) 
-12.6572

>  <SCORE.INTRA.DIHEDRAL.0>  (1) 
24.0659

>  <SCORE.INTRA.POLAR>  (1) 
0

>  <SCORE.INTRA.POLAR.0>  (1) 
0

>  <SCORE.INTRA.REPUL>  (1) 
0

>  <SCORE.INTRA.REPUL.0>  (1) 
0

>  <SCORE.INTRA.VDW>  (1) 
2.1849

>  <SCORE.INTRA.VDW.0>  (1) 
-3.73387

>  <SCORE.INTRA.norm>  (1) 
-0.138123

>  <SCORE.RESTR>  (1) 
0

>  <SCORE.RESTR.CAVITY>  (1) 
0

>  <SCORE.RESTR.norm>  (1) 
0

>  <SCORE.SYSTEM>  (1) 
-9.24467

>  <SCORE.SYSTEM.CONST>  (1) 
0

>  <SCORE.SYSTEM.DIHEDRAL>  (1) 
0.946049

>  <SCORE.SYSTEM.POLAR>  (1) 
-2.47436

>  <SCORE.SYSTEM.REPUL>  (1) 
0.00436602

>  <SCORE.SYSTEM.VDW>  (1) 
-1.32671

>  <SCORE.SYSTEM.norm>  (1) 
-0.308156

>  <SCORE.heavy>  (1) 
30

>  <SCORE.norm>  (1) 
-1.25958

$$$$
a3fdd9a0f029ba33035dae0d130b0a4f778a03d33536cc4928835da92e55b4a3
     RDKit          3D

 29 33  0  0  0  0  0  0  0  0999 V2000
   28.6045  105.1926    6.1496 C   0  0  0  0  0  0  0  0  0  0  0  0
   29.1647  105.9991    7.1358 C   0  0  0  0  0  0  0  0  0  0  0  0
   28.9006  103.8947    7.9941 N   0  0  0  0  0  0  0  0  0  0  0  0
   29.2949  107.2327    6.5666 C   0  0  0  0  0  0  0  0  0  0  0  0
   28.4473  103.8323    6.7167 C   0  0  0  0  0  0  0  0  0  0  0  0
   29.4157  105.2293    8.3899 C   0  0  0  0  0  0  0  0  0  0  0  0
   28.7972  107.0690    5.2810 N   0  0  0  0  0  0  0  0  0  0  0  0
   28.3676  105.8091    5.0059 N   0  0  0  0  0  0  0  0  0  0  0  0
   29.7984  108.5074    7.0822 C   0  0  0  0  0  0  0  0  0  0  0  0
   28.8991  102.7810    8.9434 C   0  0  0  0  0  0  0  0  0  0  0  0
   30.8964  105.2488    8.7512 C   0  0  0  0  0  0  0  0  0  0  0  0
   27.9826  102.8613    6.1213 O   0  0  0  0  0  0  0  0  0  0  0  0
   29.6452  109.7362    6.3860 C   0  0  0  0  0  0  0  0  0  0  0  0
   33.1483  104.3932    8.4016 N   0  0  0  0  0  0  0  0  0  0  0  0
   26.3193  103.9713   11.4762 N   0  0  0  0  0  0  0  0  0  0  0  0
   27.7075  102.7520    9.8925 C   0  0  0  0  0  0  0  0  0  0  0  0
   31.8292  104.3977    8.1160 C   0  0  0  0  0  0  0  0  0  0  0  0
   29.0194  109.7980    5.1724 O   0  0  0  0  0  0  0  0  0  0  0  0
   30.4675  108.5177    8.3269 C   0  0  0  0  0  0  0  0  0  0  0  0
   27.3633  103.9097   10.6225 C   0  0  0  0  0  0  0  0  0  0  0  0
   31.3789  106.1430    9.7294 C   0  0  0  0  0  0  0  0  0  0  0  0
   33.5944  105.2530    9.3413 C   0  0  0  0  0  0  0  0  0  0  0  0
   25.5658  102.8628   11.6335 C   0  0  0  0  0  0  0  0  0  0  0  0
   30.1551  110.9318    6.9324 C   0  0  0  0  0  0  0  0  0  0  0  0
   26.9047  101.6018   10.0618 C   0  0  0  0  0  0  0  0  0  0  0  0
   32.7533  106.1467   10.0322 C   0  0  0  0  0  0  0  0  0  0  0  0
   30.9767  109.7121    8.8696 C   0  0  0  0  0  0  0  0  0  0  0  0
   25.8146  101.6567   10.9505 C   0  0  0  0  0  0  0  0  0  0  0  0
   30.8204  110.9219    8.1715 C   0  0  0  0  0  0  0  0  0  0  0  0
  1  5  1  0
  1  8  2  0
  1  2  1  0
  2  4  2  0
  2  6  1  0
  3  5  1  0
  3 10  1  0
  3  6  1  0
  4  7  1  0
  4  9  1  0
  5 12  2  0
  6 11  1  0
  7  8  1  0
  9 13  2  0
  9 19  1  0
 10 16  1  0
 11 17  1  0
 11 21  2  0
 13 18  1  0
 13 24  1  0
 14 17  2  0
 14 22  1  0
 15 20  2  0
 15 23  1  0
 16 20  1  0
 16 25  2  0
 19 27  2  0
 21 26  1  0
 22 26  2  0
 23 28  2  0
 24 29  2  0
 25 28  1  0
 27 29  1  0
M  END
>  <CHROM.0>  (1) 
-58.93925537,-72.16007238,61.41954828,-66.46410387,63.79741099

>  <CHROM.1>  (1) 
-96.42010039,-169.33421850,-79.58620932,-50.86067574,153.04737842,29.36226040
105.74043677,8.17063092,1.10965424,-0.44758022,-0.64102891

>  <Name>  (1) 
a3fdd9a0f029ba33035dae0d130b0a4f778a03d33536cc4928835da92e55b4a3

>  <RI>  (1) 
1.16233e+07

>  <Rbt.Current_Directory>  (1) 
/sysgen/workspace/users/bioinformatics/2111_DEHAAN_GASDERMIN/VS_SPECS

>  <Rbt.Executable>  (1) 
rbdock ($Id: //depot/dev/client3/rdock/2013.1/src/exe/rbdock.cxx#4 $)

>  <Rbt.Library>  (1) 
libRbt.so (2013.1, Build901 2013/11/27)

>  <Rbt.Parameter_File>  (1) 
/home/sruizcarmona/SOFT/GADI/rdock/rDock_2020.GADI/data/scripts/dock.prm

>  <Rbt.Receptor>  (1) 
gasd_rdock_free.prm

>  <SCORE>  (1) 
-34.1137

>  <SCORE.INTER>  (1) 
-24.9916

>  <SCORE.INTER.CONST>  (1) 
1

>  <SCORE.INTER.POLAR>  (1) 
-2.69483

>  <SCORE.INTER.REPUL>  (1) 
0.00728211

>  <SCORE.INTER.ROT>  (1) 
4

>  <SCORE.INTER.VDW>  (1) 
-25.2656

>  <SCORE.INTER.norm>  (1) 
-0.861779

>  <SCORE.INTRA>  (1) 
-1.81548

>  <SCORE.INTRA.DIHEDRAL>  (1) 
-2.32694

>  <SCORE.INTRA.DIHEDRAL.0>  (1) 
7.59955

>  <SCORE.INTRA.POLAR>  (1) 
-0.355707

>  <SCORE.INTRA.POLAR.0>  (1) 
-0.0380264

>  <SCORE.INTRA.REPUL>  (1) 
0

>  <SCORE.INTRA.REPUL.0>  (1) 
0

>  <SCORE.INTRA.VDW>  (1) 
0.557394

>  <SCORE.INTRA.VDW.0>  (1) 
-3.64823

>  <SCORE.INTRA.norm>  (1) 
-0.0626028

>  <SCORE.RESTR>  (1) 
0

>  <SCORE.RESTR.CAVITY>  (1) 
0

>  <SCORE.RESTR.norm>  (1) 
0

>  <SCORE.SYSTEM>  (1) 
-7.30661

>  <SCORE.SYSTEM.CONST>  (1) 
0

>  <SCORE.SYSTEM.DIHEDRAL>  (1) 
1.00343

>  <SCORE.SYSTEM.POLAR>  (1) 
-2.16273

>  <SCORE.SYSTEM.REPUL>  (1) 
0.00244294

>  <SCORE.SYSTEM.VDW>  (1) 
-0.46727

>  <SCORE.SYSTEM.norm>  (1) 
-0.251952

>  <SCORE.heavy>  (1) 
29

>  <SCORE.norm>  (1) 
-1.17633

$$$$
25ff1f9a3d2fd672e75d1a80bdc0980bdd43cdbdac2fd3d090308594114f51d0
     RDKit          3D

 20 22  0  0  0  0  0  0  0  0999 V2000
   25.9491  103.9465   11.5115 N   0  0  0  0  0  0  0  0  0  0  0  0
   29.2875  105.7727    9.0378 C   0  0  0  0  0  0  0  0  0  0  0  0
   30.5260  106.3167    9.2163 N   0  0  0  0  0  0  0  0  0  0  0  0
   26.9260  103.2765   10.9707 C   0  0  0  0  0  0  0  0  0  0  0  0
   24.6457  103.4233   11.5099 C   0  0  0  0  0  0  0  0  0  0  0  0
   24.4445  102.1124   10.8817 C   0  0  0  0  0  0  0  0  0  0  0  0
   30.4904  107.6978    9.0088 C   0  0  0  0  0  0  0  0  0  0  0  0
   26.7588  102.0317   10.3696 N   0  0  0  0  0  0  0  0  0  0  0  0
   29.1521  108.0036    8.6915 C   0  0  0  0  0  0  0  0  0  0  0  0
   25.4957  101.4686   10.3392 C   0  0  0  0  0  0  0  0  0  0  0  0
   28.6554  103.8671   10.9200 S   0  0  0  0  0  0  0  0  0  0  0  0
   28.9332  104.3232    9.1769 C   0  0  0  0  0  0  0  0  0  0  0  0
   23.7054  104.0343   12.0132 O   0  0  0  0  0  0  0  0  0  0  0  0
   31.8061  105.6976    9.5724 C   0  0  0  0  0  0  0  0  0  0  0  0
   31.4742  108.6832    9.0674 C   0  0  0  0  0  0  0  0  0  0  0  0
   28.7356  109.3032    8.4190 C   0  0  0  0  0  0  0  0  0  0  0  0
   25.3873  100.1143    9.6699 C   0  0  0  0  0  0  0  0  0  0  0  0
   31.0644  110.0051    8.7927 C   0  0  0  0  0  0  0  0  0  0  0  0
   29.7239  110.3087    8.4753 C   0  0  0  0  0  0  0  0  0  0  0  0
   28.4456  106.8005    8.7214 N   0  0  0  0  0  0  0  0  0  0  0  0
  1  4  2  0
  1  5  1  0
  2 12  1  0
  2  3  1  0
  2 20  2  0
  3  7  1  0
  3 14  1  0
  4  8  1  0
  4 11  1  0
  5  6  1  0
  5 13  2  0
  6 10  2  0
  7 15  2  0
  7  9  1  0
  8 10  1  0
  9 16  2  0
  9 20  1  0
 10 17  1  0
 11 12  1  0
 15 18  1  0
 16 19  1  0
 18 19  2  0
M  CHG  1  20   1
M  END
>  <CHROM.0>  (1) 
-57.92972077,-71.40875590,-179.81251146,64.61575209,61.96020514

>  <CHROM.1>  (1) 
82.15038745,-107.57211882,119.72318758,28.08564745,105.20054403,9.90458225
2.24460340,-0.24170211,3.01361697

>  <Name>  (1) 
25ff1f9a3d2fd672e75d1a80bdc0980bdd43cdbdac2fd3d090308594114f51d0

>  <RI>  (1) 
2.75322e+07

>  <Rbt.Current_Directory>  (1) 
/sysgen/workspace/users/bioinformatics/2111_DEHAAN_GASDERMIN/VS_SPECS

>  <Rbt.Executable>  (1) 
rbdock ($Id: //depot/dev/client3/rdock/2013.1/src/exe/rbdock.cxx#4 $)

>  <Rbt.Library>  (1) 
libRbt.so (2013.1, Build901 2013/11/27)

>  <Rbt.Parameter_File>  (1) 
/home/sruizcarmona/SOFT/GADI/rdock/rDock_2020.GADI/data/scripts/dock.prm

>  <Rbt.Receptor>  (1) 
gasd_rdock_free.prm

>  <SCORE>  (1) 
-36.4438

>  <SCORE.INTER>  (1) 
-26.0889

>  <SCORE.INTER.CONST>  (1) 
1

>  <SCORE.INTER.POLAR>  (1) 
-3.66899

>  <SCORE.INTER.REPUL>  (1) 
0

>  <SCORE.INTER.ROT>  (1) 
3

>  <SCORE.INTER.VDW>  (1) 
-22.0143

>  <SCORE.INTER.norm>  (1) 
-1.30444

>  <SCORE.INTRA>  (1) 
-1.11107

>  <SCORE.INTRA.DIHEDRAL>  (1) 
2.39501

>  <SCORE.INTRA.DIHEDRAL.0>  (1) 
3.32991

>  <SCORE.INTRA.POLAR>  (1) 
0

>  <SCORE.INTRA.POLAR.0>  (1) 
0

>  <SCORE.INTRA.REPUL>  (1) 
0

>  <SCORE.INTRA.REPUL.0>  (1) 
0

>  <SCORE.INTRA.VDW>  (1) 
-2.30857

>  <SCORE.INTRA.VDW.0>  (1) 
1.14492

>  <SCORE.INTRA.norm>  (1) 
-0.0555534

>  <SCORE.RESTR>  (1) 
0

>  <SCORE.RESTR.CAVITY>  (1) 
0

>  <SCORE.RESTR.norm>  (1) 
0

>  <SCORE.SYSTEM>  (1) 
-9.24384

>  <SCORE.SYSTEM.CONST>  (1) 
0

>  <SCORE.SYSTEM.DIHEDRAL>  (1) 
0.775915

>  <SCORE.SYSTEM.POLAR>  (1) 
-2.45807

>  <SCORE.SYSTEM.REPUL>  (1) 
0.00404233

>  <SCORE.SYSTEM.VDW>  (1) 
-1.29456

>  <SCORE.SYSTEM.norm>  (1) 
-0.462192

>  <SCORE.heavy>  (1) 
20

>  <SCORE.norm>  (1) 
-1.82219

$$$$
cd9c396056b6fb3fc652cce44c08a66b4900a77fa95b64990ad804e5f55c8889
     RDKit          3D

 25 28  0  0  0  0  0  0  0  0999 V2000
   31.7560  104.3972    9.0041 C   0  0  0  0  0  0  0  0  0  0  0  0
   31.2787  105.1647    8.0246 N   0  0  0  0  0  0  0  0  0  0  0  0
   33.0578  104.5231    9.2095 N   0  0  0  0  0  0  0  0  0  0  0  0
   32.3201  105.8298    7.4693 N   0  0  0  0  0  0  0  0  0  0  0  0
   33.3440  105.4271    8.2237 C   0  0  0  0  0  0  0  0  0  0  0  0
   30.8515  103.5819    9.6623 N   0  0  0  0  0  0  0  0  0  0  0  0
   29.9062  105.2243    7.5212 C   0  0  0  0  0  0  0  0  0  0  0  0
   28.9245  104.6248    8.5680 C   0  0  0  0  0  0  0  0  0  0  0  0
   29.4765  103.3488    9.2503 C   0  0  0  0  0  0  0  0  0  0  0  0
   29.5033  106.6350    7.1037 C   0  0  0  0  0  0  0  0  0  0  0  0
   28.5729  102.8620   10.3721 C   0  0  0  0  0  0  0  0  0  0  0  0
   30.1345  107.7523    7.6920 C   0  0  0  0  0  0  0  0  0  0  0  0
   27.3414  103.5080   10.6077 C   0  0  0  0  0  0  0  0  0  0  0  0
   34.6541  105.8889    8.0252 N   0  0  0  0  0  0  0  0  0  0  0  0
   29.7681  109.0578    7.3107 C   0  0  0  0  0  0  0  0  0  0  0  0
   26.4850  103.0876   11.6461 C   0  0  0  0  0  0  0  0  0  0  0  0
   30.6244  110.5570    8.1108 Br  0  0  0  0  0  0  0  0  0  0  0  0
   28.5025  106.8392    6.1272 C   0  0  0  0  0  0  0  0  0  0  0  0
   25.3014  103.7777   11.7984 O   0  0  0  0  0  0  0  0  0  0  0  0
   28.9583  101.7834   11.1964 C   0  0  0  0  0  0  0  0  0  0  0  0
   28.1363  108.1445    5.7463 C   0  0  0  0  0  0  0  0  0  0  0  0
   28.1137  101.3534   12.2361 C   0  0  0  0  0  0  0  0  0  0  0  0
   28.7691  109.2544    6.3381 C   0  0  0  0  0  0  0  0  0  0  0  0
   26.8827  101.9986   12.4617 C   0  0  0  0  0  0  0  0  0  0  0  0
   24.1122  103.0287   12.0023 C   0  0  0  0  0  0  0  0  0  0  0  0
  1  2  1  0
  1  3  2  0
  1  6  1  0
  2  4  1  0
  2  7  1  0
  3  5  1  0
  4  5  2  0
  5 14  1  0
  6  9  1  0
  7 10  1  0
  7  8  1  0
  8  9  1  0
  9 11  1  0
 10 12  2  0
 10 18  1  0
 11 13  2  0
 11 20  1  0
 12 15  1  0
 13 16  1  0
 15 17  1  0
 15 23  2  0
 16 19  1  0
 16 24  2  0
 18 21  2  0
 19 25  1  0
 20 22  2  0
 21 23  1  0
 22 24  1  0
M  END
>  <CHROM.0>  (1) 
-59.74341953,-71.72361798,-178.68515299,-69.17500648,63.31618293

>  <CHROM.1>  (1) 
-25.97974694,129.42148377,135.20975092,29.66719528,105.99134099,8.90201594
-2.02755027,0.26528984,-0.39421310

>  <Name>  (1) 
cd9c396056b6fb3fc652cce44c08a66b4900a77fa95b64990ad804e5f55c8889

>  <RI>  (1) 
1.51909e+07

>  <Rbt.Current_Directory>  (1) 
/sysgen/workspace/users/bioinformatics/2111_DEHAAN_GASDERMIN/VS_SPECS

>  <Rbt.Executable>  (1) 
rbdock ($Id: //depot/dev/client3/rdock/2013.1/src/exe/rbdock.cxx#4 $)

>  <Rbt.Library>  (1) 
libRbt.so (2013.1, Build901 2013/11/27)

>  <Rbt.Parameter_File>  (1) 
/home/sruizcarmona/SOFT/GADI/rdock/rDock_2020.GADI/data/scripts/dock.prm

>  <Rbt.Receptor>  (1) 
gasd_rdock_free.prm

>  <SCORE>  (1) 
-29.7967

>  <SCORE.INTER>  (1) 
-24.3275

>  <SCORE.INTER.CONST>  (1) 
1

>  <SCORE.INTER.POLAR>  (1) 
-2.38861

>  <SCORE.INTER.REPUL>  (1) 
0

>  <SCORE.INTER.ROT>  (1) 
3

>  <SCORE.INTER.VDW>  (1) 
-24.6062

>  <SCORE.INTER.norm>  (1) 
-0.973101

>  <SCORE.INTRA>  (1) 
1.94111

>  <SCORE.INTRA.DIHEDRAL>  (1) 
2.35774

>  <SCORE.INTRA.DIHEDRAL.0>  (1) 
1.45512

>  <SCORE.INTRA.POLAR>  (1) 
0

>  <SCORE.INTRA.POLAR.0>  (1) 
0

>  <SCORE.INTRA.REPUL>  (1) 
0

>  <SCORE.INTRA.REPUL.0>  (1) 
0

>  <SCORE.INTRA.VDW>  (1) 
0.762236

>  <SCORE.INTRA.VDW.0>  (1) 
0.523472

>  <SCORE.INTRA.norm>  (1) 
0.0776442

>  <SCORE.RESTR>  (1) 
0

>  <SCORE.RESTR.CAVITY>  (1) 
0

>  <SCORE.RESTR.norm>  (1) 
0

>  <SCORE.SYSTEM>  (1) 
-7.41026

>  <SCORE.SYSTEM.CONST>  (1) 
0

>  <SCORE.SYSTEM.DIHEDRAL>  (1) 
1.13521

>  <SCORE.SYSTEM.POLAR>  (1) 
-2.146

>  <SCORE.SYSTEM.REPUL>  (1) 
0.0010429

>  <SCORE.SYSTEM.VDW>  (1) 
-0.686674

>  <SCORE.SYSTEM.norm>  (1) 
-0.29641

>  <SCORE.heavy>  (1) 
25

>  <SCORE.norm>  (1) 
-1.19187

$$$$
c6ff5749bfb3029cda6654972849e7abeb0812531c382aeeacb3f1e01c6b8c2e
     RDKit          3D

 32 35  0  0  0  0  0  0  0  0999 V2000
   26.9078  101.6986   10.6250 N   0  0  0  0  0  0  0  0  0  0  0  0
   27.8003  102.6161   10.1982 C   0  0  0  0  0  0  0  0  0  0  0  0
   26.0675  102.4583   11.3593 C   0  0  0  0  0  0  0  0  0  0  0  0
   27.5522  103.8522   10.6362 N   0  0  0  0  0  0  0  0  0  0  0  0
   26.4061  103.7527   11.3899 N   0  0  0  0  0  0  0  0  0  0  0  0
   31.4094  104.8869    9.5147 N   0  0  0  0  0  0  0  0  0  0  0  0
   30.4345  106.8906    7.7581 N   0  0  0  0  0  0  0  0  0  0  0  0
   22.5540  102.6440   11.6385 C   0  0  0  0  0  0  0  0  0  0  0  0
   31.6235  103.5578    9.6722 C   0  0  0  0  0  0  0  0  0  0  0  0
   21.6136  103.7706   11.7874 C   0  0  0  0  0  0  0  0  0  0  0  0
   29.1731  102.2251    9.1624 S   0  0  0  0  0  0  0  0  0  0  0  0
   23.7927  102.8525   12.1038 N   0  0  0  0  0  0  0  0  0  0  0  0
   24.8703  101.8722   12.0548 C   0  0  0  0  0  0  0  0  0  0  0  0
   22.0963  105.0228   12.0436 O   0  0  0  0  0  0  0  0  0  0  0  0
   30.5363  102.6678   10.2921 C   0  0  0  0  0  0  0  0  0  0  0  0
   32.3600  105.7619    8.8145 C   0  0  0  0  0  0  0  0  0  0  0  0
   30.1827  105.6146    9.8708 C   0  0  0  0  0  0  0  0  0  0  0  0
   29.5024  106.1125    8.5773 C   0  0  0  0  0  0  0  0  0  0  0  0
   31.7194  106.2374    7.4955 C   0  0  0  0  0  0  0  0  0  0  0  0
   20.2470  103.8047   11.7128 C   0  0  0  0  0  0  0  0  0  0  0  0
   30.4451  108.2996    7.8531 C   0  0  0  0  0  0  0  0  0  0  0  0
   22.1975  101.5886   11.1150 O   0  0  0  0  0  0  0  0  0  0  0  0
   32.6693  103.0119    9.3190 O   0  0  0  0  0  0  0  0  0  0  0  0
   21.0197  105.8506   12.1303 C   0  0  0  0  0  0  0  0  0  0  0  0
   19.8607  105.1555   11.9354 C   0  0  0  0  0  0  0  0  0  0  0  0
   26.8665  100.2651   10.3720 C   0  0  0  0  0  0  0  0  0  0  0  0
   31.2338  108.9248    8.8480 C   0  0  0  0  0  0  0  0  0  0  0  0
   29.6950  109.1221    6.9756 C   0  0  0  0  0  0  0  0  0  0  0  0
   26.2474   99.9497    9.0054 C   0  0  0  0  0  0  0  0  0  0  0  0
   29.7277  110.5249    7.0981 C   0  0  0  0  0  0  0  0  0  0  0  0
   31.2682  110.3272    8.9704 C   0  0  0  0  0  0  0  0  0  0  0  0
   30.5134  111.1292    8.0959 C   0  0  0  0  0  0  0  0  0  0  0  0
  1  2  1  0
  1  3  1  0
  1 26  1  0
  2  4  2  0
  2 11  1  0
  3  5  2  0
  3 13  1  0
  4  5  1  0
  6  9  1  0
  6 16  1  0
  6 17  1  0
  7 18  1  0
  7 21  1  0
  7 19  1  0
  8 12  1  0
  8 10  1  0
  8 22  2  0
  9 15  1  0
  9 23  2  0
 10 14  1  0
 10 20  2  0
 11 15  1  0
 12 13  1  0
 14 24  1  0
 16 19  1  0
 17 18  1  0
 20 25  1  0
 21 27  2  0
 21 28  1  0
 24 25  2  0
 26 29  1  0
 27 31  1  0
 28 30  2  0
 30 32  1  0
 31 32  2  0
M  END
>  <CHROM.0>  (1) 
-60.02254188,174.16336440,179.23974001,-67.76855272,-52.35443824

>  <CHROM.1>  (1) 
-81.32218850,-116.91654446,-147.94361009,86.31351571,16.76325432,77.98970245
-131.28278742,124.85267027,27.52433541,104.59426428,9.93048404,-2.65267558
0.28097468,-0.17036637

>  <Name>  (1) 
c6ff5749bfb3029cda6654972849e7abeb0812531c382aeeacb3f1e01c6b8c2e

>  <RI>  (1) 
1.12547e+07

>  <Rbt.Current_Directory>  (1) 
/sysgen/workspace/users/bioinformatics/2111_DEHAAN_GASDERMIN/VS_SPECS

>  <Rbt.Executable>  (1) 
rbdock ($Id: //depot/dev/client3/rdock/2013.1/src/exe/rbdock.cxx#4 $)

>  <Rbt.Library>  (1) 
libRbt.so (2013.1, Build901 2013/11/27)

>  <Rbt.Parameter_File>  (1) 
/home/sruizcarmona/SOFT/GADI/rdock/rDock_2020.GADI/data/scripts/dock.prm

>  <Rbt.Receptor>  (1) 
gasd_rdock_free.prm

>  <SCORE>  (1) 
-28.0094

>  <SCORE.INTER>  (1) 
-25.8874

>  <SCORE.INTER.CONST>  (1) 
1

>  <SCORE.INTER.POLAR>  (1) 
-3.0468

>  <SCORE.INTER.REPUL>  (1) 
0.398049

>  <SCORE.INTER.ROT>  (1) 
8

>  <SCORE.INTER.VDW>  (1) 
-30.9186

>  <SCORE.INTER.norm>  (1) 
-0.808982

>  <SCORE.INTRA>  (1) 
0.883281

>  <SCORE.INTRA.DIHEDRAL>  (1) 
2.18212

>  <SCORE.INTRA.DIHEDRAL.0>  (1) 
10.847

>  <SCORE.INTRA.POLAR>  (1) 
0.0996601

>  <SCORE.INTRA.POLAR.0>  (1) 
-0.127335

>  <SCORE.INTRA.REPUL>  (1) 
0

>  <SCORE.INTRA.REPUL.0>  (1) 
0

>  <SCORE.INTRA.VDW>  (1) 
-0.546621

>  <SCORE.INTRA.VDW.0>  (1) 
-3.33777

>  <SCORE.INTRA.norm>  (1) 
0.0276025

>  <SCORE.RESTR>  (1) 
0

>  <SCORE.RESTR.CAVITY>  (1) 
0

>  <SCORE.RESTR.norm>  (1) 
0

>  <SCORE.SYSTEM>  (1) 
-3.00529

>  <SCORE.SYSTEM.CONST>  (1) 
0

>  <SCORE.SYSTEM.DIHEDRAL>  (1) 
0.756793

>  <SCORE.SYSTEM.POLAR>  (1) 
-0.974658

>  <SCORE.SYSTEM.REPUL>  (1) 
0.0446165

>  <SCORE.SYSTEM.VDW>  (1) 
-0.292932

>  <SCORE.SYSTEM.norm>  (1) 
-0.0939153

>  <SCORE.heavy>  (1) 
32

>  <SCORE.norm>  (1) 
-0.875295

$$$$
701053f401faf34364c712942e08ac09b33c05f24ce51203a4d2aceb63f2f09f
     RDKit          3D

 27 30  0  0  0  0  0  0  0  0999 V2000
   30.4023  106.4375   10.0561 C   0  0  0  0  0  0  0  0  0  0  0  0
   24.2763  103.2074   11.3995 C   0  0  0  0  0  0  0  0  0  0  0  0
   25.0449  102.2526   10.8082 O   0  0  0  0  0  0  0  0  0  0  0  0
   24.9995  104.2309   11.8707 N   0  0  0  0  0  0  0  0  0  0  0  0
   29.7742  106.9017    8.9716 N   0  0  0  0  0  0  0  0  0  0  0  0
   26.2836  102.7958   10.9020 C   0  0  0  0  0  0  0  0  0  0  0  0
   26.3084  103.9680   11.5351 N   0  0  0  0  0  0  0  0  0  0  0  0
   31.5080  107.5546   10.8748 S   0  0  0  0  0  0  0  0  0  0  0  0
   22.8220  103.0353   11.4542 C   0  0  0  0  0  0  0  0  0  0  0  0
   30.1419  105.0968   10.4217 N   0  0  0  0  0  0  0  0  0  0  0  0
   30.2044  108.1972    8.6995 C   0  0  0  0  0  0  0  0  0  0  0  0
   31.1500  108.7400    9.6212 C   0  0  0  0  0  0  0  0  0  0  0  0
   29.1971  104.2746    9.9324 C   0  0  0  0  0  0  0  0  0  0  0  0
   27.5973  101.9806   10.0658 S   0  0  0  0  0  0  0  0  0  0  0  0
   22.1790  101.8538   10.9922 C   0  0  0  0  0  0  0  0  0  0  0  0
   28.5228  104.4984    8.9286 O   0  0  0  0  0  0  0  0  0  0  0  0
   28.9757  102.9792   10.7171 C   0  0  0  0  0  0  0  0  0  0  0  0
   22.0490  104.0926   11.9841 C   0  0  0  0  0  0  0  0  0  0  0  0
   22.9537  100.8442   10.4563 O   0  0  0  0  0  0  0  0  0  0  0  0
   29.8088  109.0091    7.6115 C   0  0  0  0  0  0  0  0  0  0  0  0
   31.6692  110.0381    9.4620 C   0  0  0  0  0  0  0  0  0  0  0  0
   20.7645  101.7692   11.0748 C   0  0  0  0  0  0  0  0  0  0  0  0
   22.7148  100.4367    9.1171 C   0  0  0  0  0  0  0  0  0  0  0  0
   20.6489  103.9932   12.0588 C   0  0  0  0  0  0  0  0  0  0  0  0
   31.2579  110.8226    8.3689 C   0  0  0  0  0  0  0  0  0  0  0  0
   30.3296  110.3075    7.4445 C   0  0  0  0  0  0  0  0  0  0  0  0
   20.0071  102.8301   11.6032 C   0  0  0  0  0  0  0  0  0  0  0  0
  1  5  2  0
  1  8  1  0
  1 10  1  0
  2  3  1  0
  2  9  1  0
  2  4  2  0
  3  6  1  0
  4  7  1  0
  5 11  1  0
  6 14  1  0
  6  7  2  0
  8 12  1  0
  9 15  2  0
  9 18  1  0
 10 13  1  0
 11 20  2  0
 11 12  1  0
 12 21  2  0
 13 16  2  0
 13 17  1  0
 14 17  1  0
 15 19  1  0
 15 22  1  0
 18 24  2  0
 19 23  1  0
 20 26  1  0
 21 25  1  0
 22 27  2  0
 24 27  1  0
 25 26  2  0
M  END
>  <CHROM.0>  (1) 
-59.22606079,-71.12882541,61.48246409,64.23118905,-57.93518041

>  <CHROM.1>  (1) 
-10.36053763,4.52862874,-172.66804153,175.65767533,-83.98361327,-120.45634939
26.96757086,104.80461663,10.25623711,-0.64370541,-0.13085484,3.02839206

>  <Name>  (1) 
701053f401faf34364c712942e08ac09b33c05f24ce51203a4d2aceb63f2f09f

>  <RI>  (1) 
1.2549e+07

>  <Rbt.Current_Directory>  (1) 
/sysgen/workspace/users/bioinformatics/2111_DEHAAN_GASDERMIN/VS_SPECS

>  <Rbt.Executable>  (1) 
rbdock ($Id: //depot/dev/client3/rdock/2013.1/src/exe/rbdock.cxx#4 $)

>  <Rbt.Library>  (1) 
libRbt.so (2013.1, Build901 2013/11/27)

>  <Rbt.Parameter_File>  (1) 
/home/sruizcarmona/SOFT/GADI/rdock/rDock_2020.GADI/data/scripts/dock.prm

>  <Rbt.Receptor>  (1) 
gasd_rdock_free.prm

>  <SCORE>  (1) 
-32.9276

>  <SCORE.INTER>  (1) 
-25.9568

>  <SCORE.INTER.CONST>  (1) 
1

>  <SCORE.INTER.POLAR>  (1) 
-2.80505

>  <SCORE.INTER.REPUL>  (1) 
0.132156

>  <SCORE.INTER.ROT>  (1) 
6

>  <SCORE.INTER.VDW>  (1) 
-28.4805

>  <SCORE.INTER.norm>  (1) 
-0.961365

>  <SCORE.INTRA>  (1) 
0.427867

>  <SCORE.INTRA.DIHEDRAL>  (1) 
-4.06442

>  <SCORE.INTRA.DIHEDRAL.0>  (1) 
10.7141

>  <SCORE.INTRA.POLAR>  (1) 
0

>  <SCORE.INTRA.POLAR.0>  (1) 
0

>  <SCORE.INTRA.REPUL>  (1) 
-0.194304

>  <SCORE.INTRA.REPUL.0>  (1) 
0.194304

>  <SCORE.INTRA.VDW>  (1) 
3.4316

>  <SCORE.INTRA.VDW.0>  (1) 
-4.67088

>  <SCORE.INTRA.norm>  (1) 
0.0158469

>  <SCORE.RESTR>  (1) 
0

>  <SCORE.RESTR.CAVITY>  (1) 
0

>  <SCORE.RESTR.norm>  (1) 
0

>  <SCORE.SYSTEM>  (1) 
-7.39866

>  <SCORE.SYSTEM.CONST>  (1) 
0

>  <SCORE.SYSTEM.DIHEDRAL>  (1) 
0.724559

>  <SCORE.SYSTEM.POLAR>  (1) 
-2.16915

>  <SCORE.SYSTEM.REPUL>  (1) 
0.0941973

>  <SCORE.SYSTEM.VDW>  (1) 
-0.856817

>  <SCORE.SYSTEM.norm>  (1) 
-0.274024

>  <SCORE.heavy>  (1) 
27

>  <SCORE.norm>  (1) 
-1.21954

$$$$
45ace4b0b162dd0e38996edcb763cf8679453a41bfb89b7964e5bd541951e9b0
     RDKit          3D

 24 26  0  0  0  0  0  0  0  0999 V2000
   22.4735  103.6852   11.7962 N   0  0  0  0  0  0  0  0  0  0  0  0
   22.1078  104.9671   12.0342 N   0  0  0  0  0  0  0  0  0  0  0  0
   21.3836  102.8303   11.9059 C   0  0  0  0  0  0  0  0  0  0  0  0
   23.8247  103.3845   11.4849 C   0  0  0  0  0  0  0  0  0  0  0  0
   20.3015  103.5980   12.2340 C   0  0  0  0  0  0  0  0  0  0  0  0
   24.7975  104.2780   11.7891 N   0  0  0  0  0  0  0  0  0  0  0  0
   30.2548  108.0626    8.8029 C   0  0  0  0  0  0  0  0  0  0  0  0
   20.8142  104.9216   12.2993 C   0  0  0  0  0  0  0  0  0  0  0  0
   26.0787  104.0259   11.5009 N   0  0  0  0  0  0  0  0  0  0  0  0
   29.5041  106.8272    8.4898 C   0  0  0  0  0  0  0  0  0  0  0  0
   30.0759  109.4496    7.7470 S   0  0  0  0  0  0  0  0  0  0  0  0
   26.4348  102.8729   10.8918 C   0  0  0  0  0  0  0  0  0  0  0  0
   31.0914  108.3482    9.8523 C   0  0  0  0  0  0  0  0  0  0  0  0
   31.1587  110.3921    8.7349 C   0  0  0  0  0  0  0  0  0  0  0  0
   24.1319  102.1627   10.8458 C   0  0  0  0  0  0  0  0  0  0  0  0
   28.9128  106.7201    7.4155 O   0  0  0  0  0  0  0  0  0  0  0  0
   31.6116  109.6756    9.8110 C   0  0  0  0  0  0  0  0  0  0  0  0
   29.4711  105.8755    9.4373 N   0  0  0  0  0  0  0  0  0  0  0  0
   27.8070  102.7313   10.6442 N   0  0  0  0  0  0  0  0  0  0  0  0
   25.4773  101.8954   10.5404 C   0  0  0  0  0  0  0  0  0  0  0  0
   21.4541  101.3543   11.6785 C   0  0  0  0  0  0  0  0  0  0  0  0
   20.0800  106.1905   12.6164 C   0  0  0  0  0  0  0  0  0  0  0  0
   28.7651  104.6063    9.3203 C   0  0  0  0  0  0  0  0  0  0  0  0
   28.7180  103.8666   10.6690 C   0  0  0  0  0  0  0  0  0  0  0  0
  1  2  1  0
  1  3  1  0
  1  4  1  0
  2  8  2  0
  3  5  2  0
  3 21  1  0
  4  6  2  0
  4 15  1  0
  5  8  1  0
  6  9  1  0
  7 10  1  0
  7 11  1  0
  7 13  2  0
  8 22  1  0
  9 12  2  0
 10 18  1  0
 10 16  2  0
 11 14  1  0
 12 20  1  0
 12 19  1  0
 13 17  1  0
 14 17  2  0
 15 20  2  0
 18 23  1  0
 19 24  1  0
 23 24  1  0
M  END
>  <CHROM.0>  (1) 
-58.49431782,-71.61065591,-64.44891643,64.08097085,61.78960912

>  <CHROM.1>  (1) 
18.59561597,9.68306344,-17.29100111,-169.64005037,-85.24210003,168.94733290
26.33015927,105.33104377,10.36603209,2.60360911,-0.30653514,3.03110582

>  <Name>  (1) 
45ace4b0b162dd0e38996edcb763cf8679453a41bfb89b7964e5bd541951e9b0

>  <RI>  (1) 
3.68383e+07

>  <Rbt.Current_Directory>  (1) 
/sysgen/workspace/users/bioinformatics/2111_DEHAAN_GASDERMIN/VS_SPECS

>  <Rbt.Executable>  (1) 
rbdock ($Id: //depot/dev/client3/rdock/2013.1/src/exe/rbdock.cxx#4 $)

>  <Rbt.Library>  (1) 
libRbt.so (2013.1, Build901 2013/11/27)

>  <Rbt.Parameter_File>  (1) 
/home/sruizcarmona/SOFT/GADI/rdock/rDock_2020.GADI/data/scripts/dock.prm

>  <Rbt.Receptor>  (1) 
gasd_rdock_free.prm

>  <SCORE>  (1) 
-38.0922

>  <SCORE.INTER>  (1) 
-29.099

>  <SCORE.INTER.CONST>  (1) 
1

>  <SCORE.INTER.POLAR>  (1) 
-3.55024

>  <SCORE.INTER.REPUL>  (1) 
0.00716713

>  <SCORE.INTER.ROT>  (1) 
6

>  <SCORE.INTER.VDW>  (1) 
-28.464

>  <SCORE.INTER.norm>  (1) 
-1.21246

>  <SCORE.INTRA>  (1) 
0.204268

>  <SCORE.INTRA.DIHEDRAL>  (1) 
-2.66949

>  <SCORE.INTRA.DIHEDRAL.0>  (1) 
9.57212

>  <SCORE.INTRA.POLAR>  (1) 
0

>  <SCORE.INTRA.POLAR.0>  (1) 
0

>  <SCORE.INTRA.REPUL>  (1) 
0

>  <SCORE.INTRA.REPUL.0>  (1) 
0

>  <SCORE.INTRA.VDW>  (1) 
1.53901

>  <SCORE.INTRA.VDW.0>  (1) 
-1.00109

>  <SCORE.INTRA.norm>  (1) 
0.00851118

>  <SCORE.RESTR>  (1) 
0

>  <SCORE.RESTR.CAVITY>  (1) 
0

>  <SCORE.RESTR.norm>  (1) 
0

>  <SCORE.SYSTEM>  (1) 
-9.19751

>  <SCORE.SYSTEM.CONST>  (1) 
0

>  <SCORE.SYSTEM.DIHEDRAL>  (1) 
0.858639

>  <SCORE.SYSTEM.POLAR>  (1) 
-2.45409

>  <SCORE.SYSTEM.REPUL>  (1) 
0.00317026

>  <SCORE.SYSTEM.VDW>  (1) 
-1.29877

>  <SCORE.SYSTEM.norm>  (1) 
-0.38323

>  <SCORE.heavy>  (1) 
24

>  <SCORE.norm>  (1) 
-1.58718

$$$$
1738551545e89c7183c5408564612d479f63c16fe7598f16fdf45dba28f55a20
     RDKit          3D

 22 24  0  0  0  0  0  0  0  0999 V2000
   29.1369  105.9741    9.0538 C   0  0  0  0  0  0  0  0  0  0  0  0
   28.3449  106.8365    8.3931 N   0  0  0  0  0  0  0  0  0  0  0  0
   28.4005  105.1223    9.7883 N   0  0  0  0  0  0  0  0  0  0  0  0
   28.7091  107.9114    7.5290 C   0  0  0  0  0  0  0  0  0  0  0  0
   29.6968  108.8223    7.9887 C   0  0  0  0  0  0  0  0  0  0  0  0
   28.8354  104.0648   10.6360 C   0  0  0  0  0  0  0  0  0  0  0  0
   30.2808  108.6557    9.2028 N   0  0  0  0  0  0  0  0  0  0  0  0
   30.3668  105.9865    9.0193 O   0  0  0  0  0  0  0  0  0  0  0  0
   27.8496  103.4114   11.4147 C   0  0  0  0  0  0  0  0  0  0  0  0
   30.0610  109.9110    7.1454 C   0  0  0  0  0  0  0  0  0  0  0  0
   26.5493  103.8644   11.3056 O   0  0  0  0  0  0  0  0  0  0  0  0
   28.0893  108.1129    6.2710 C   0  0  0  0  0  0  0  0  0  0  0  0
   28.4637  109.1937    5.4543 C   0  0  0  0  0  0  0  0  0  0  0  0
   31.2209  109.5321    9.6125 C   0  0  0  0  0  0  0  0  0  0  0  0
   30.1812  103.6261   10.6891 C   0  0  0  0  0  0  0  0  0  0  0  0
   29.4526  110.0912    5.8882 C   0  0  0  0  0  0  0  0  0  0  0  0
   28.2360  102.3406   12.2611 C   0  0  0  0  0  0  0  0  0  0  0  0
   31.0452  110.8222    7.5810 C   0  0  0  0  0  0  0  0  0  0  0  0
   25.4988  102.9089   11.3121 C   0  0  0  0  0  0  0  0  0  0  0  0
   31.6389  110.6303    8.8406 C   0  0  0  0  0  0  0  0  0  0  0  0
   30.5498  102.5628   11.5325 C   0  0  0  0  0  0  0  0  0  0  0  0
   29.5782  101.9230   12.3207 C   0  0  0  0  0  0  0  0  0  0  0  0
  1  2  1  0
  1  3  1  0
  1  8  2  0
  2  4  1  0
  3  6  1  0
  4  5  1  0
  4 12  2  0
  5  7  2  0
  5 10  1  0
  6  9  2  0
  6 15  1  0
  7 14  1  0
  9 11  1  0
  9 17  1  0
 10 18  2  0
 10 16  1  0
 11 19  1  0
 12 13  1  0
 13 16  2  0
 14 20  2  0
 15 21  2  0
 17 22  2  0
 18 20  1  0
 21 22  1  0
M  END
>  <CHROM.0>  (1) 
-59.28831764,-70.75329685,-62.33079773,66.54048298,63.93920507

>  <CHROM.1>  (1) 
-49.02607197,173.12449753,141.25536409,29.13867328,106.40925228,9.27554831
1.81548622,0.43141186,2.48115482

>  <Name>  (1) 
1738551545e89c7183c5408564612d479f63c16fe7598f16fdf45dba28f55a20

>  <RI>  (1) 
3.40571e+07

>  <Rbt.Current_Directory>  (1) 
/sysgen/workspace/users/bioinformatics/2111_DEHAAN_GASDERMIN/VS_SPECS

>  <Rbt.Executable>  (1) 
rbdock ($Id: //depot/dev/client3/rdock/2013.1/src/exe/rbdock.cxx#4 $)

>  <Rbt.Library>  (1) 
libRbt.so (2013.1, Build901 2013/11/27)

>  <Rbt.Parameter_File>  (1) 
/home/sruizcarmona/SOFT/GADI/rdock/rDock_2020.GADI/data/scripts/dock.prm

>  <Rbt.Receptor>  (1) 
gasd_rdock_free.prm

>  <SCORE>  (1) 
-31.7328

>  <SCORE.INTER>  (1) 
-24.2699

>  <SCORE.INTER.CONST>  (1) 
1

>  <SCORE.INTER.POLAR>  (1) 
-2.80008

>  <SCORE.INTER.REPUL>  (1) 
0

>  <SCORE.INTER.ROT>  (1) 
3

>  <SCORE.INTER.VDW>  (1) 
-23.1496

>  <SCORE.INTER.norm>  (1) 
-1.10318

>  <SCORE.INTRA>  (1) 
1.72665

>  <SCORE.INTRA.DIHEDRAL>  (1) 
6.16219

>  <SCORE.INTRA.DIHEDRAL.0>  (1) 
3.61729

>  <SCORE.INTRA.POLAR>  (1) 
-0.0323045

>  <SCORE.INTRA.POLAR.0>  (1) 
-0.0610834

>  <SCORE.INTRA.REPUL>  (1) 
0

>  <SCORE.INTRA.REPUL.0>  (1) 
0

>  <SCORE.INTRA.VDW>  (1) 
-1.24461

>  <SCORE.INTRA.VDW.0>  (1) 
1.04039

>  <SCORE.INTRA.norm>  (1) 
0.078484

>  <SCORE.RESTR>  (1) 
0

>  <SCORE.RESTR.CAVITY>  (1) 
0

>  <SCORE.RESTR.norm>  (1) 
0

>  <SCORE.SYSTEM>  (1) 
-9.18952

>  <SCORE.SYSTEM.CONST>  (1) 
0

>  <SCORE.SYSTEM.DIHEDRAL>  (1) 
0.878111

>  <SCORE.SYSTEM.POLAR>  (1) 
-2.43052

>  <SCORE.SYSTEM.REPUL>  (1) 
0.00184846

>  <SCORE.SYSTEM.VDW>  (1) 
-1.37405

>  <SCORE.SYSTEM.norm>  (1) 
-0.417705

>  <SCORE.heavy>  (1) 
22

>  <SCORE.norm>  (1) 
-1.4424

$$$$
5f0908992b311d362d1c5d1ba10e17f422bc624fc4d335b3cee54c0cb7ef6fbb
     RDKit          3D

 28 31  0  0  0  0  0  0  0  0999 V2000
   24.6865  104.2179   11.8146 N   0  0  0  0  0  0  0  0  0  0  0  0
   25.3288  103.0370   11.7981 C   0  0  0  0  0  0  0  0  0  0  0  0
   23.3528  103.8652   11.7436 C   0  0  0  0  0  0  0  0  0  0  0  0
   24.5254  101.9272   11.7212 O   0  0  0  0  0  0  0  0  0  0  0  0
   29.0547  103.5130   11.2730 C   0  0  0  0  0  0  0  0  0  0  0  0
   26.7734  102.8208   11.8525 C   0  0  0  0  0  0  0  0  0  0  0  0
   23.2526  102.4603   11.6861 C   0  0  0  0  0  0  0  0  0  0  0  0
   29.8885  104.4676   10.6412 N   0  0  0  0  0  0  0  0  0  0  0  0
   27.6613  103.7284   11.2336 C   0  0  0  0  0  0  0  0  0  0  0  0
   29.5252  105.2691    9.6249 C   0  0  0  0  0  0  0  0  0  0  0  0
   22.2895  104.6767   11.7281 N   0  0  0  0  0  0  0  0  0  0  0  0
   29.5744  102.3971   11.9768 C   0  0  0  0  0  0  0  0  0  0  0  0
   27.2979  101.6976   12.5278 C   0  0  0  0  0  0  0  0  0  0  0  0
   28.4148  105.2342    9.0946 O   0  0  0  0  0  0  0  0  0  0  0  0
   28.6889  101.4919   12.5928 C   0  0  0  0  0  0  0  0  0  0  0  0
   30.2794  107.5593    9.7108 O   0  0  0  0  0  0  0  0  0  0  0  0
   30.5615  106.2850    9.1421 C   0  0  0  0  0  0  0  0  0  0  0  0
   31.2756  102.1287   12.1415 Cl  0  0  0  0  0  0  0  0  0  0  0  0
   30.4455  108.6767    8.9211 C   0  0  0  0  0  0  0  0  0  0  0  0
   29.8145  108.6673    7.6599 C   0  0  0  0  0  0  0  0  0  0  0  0
   29.9281  109.7666    6.7843 C   0  0  0  0  0  0  0  0  0  0  0  0
   22.0050  101.8275   11.6083 C   0  0  0  0  0  0  0  0  0  0  0  0
   31.3193  110.9133    8.4254 C   0  0  0  0  0  0  0  0  0  0  0  0
   21.0770  104.0694   11.6526 C   0  0  0  0  0  0  0  0  0  0  0  0
   31.2022  109.8146    9.2986 C   0  0  0  0  0  0  0  0  0  0  0  0
   30.6846  110.8907    7.1697 C   0  0  0  0  0  0  0  0  0  0  0  0
   29.2449  109.7358    5.4327 C   0  0  0  0  0  0  0  0  0  0  0  0
   20.8762  102.6692   11.5911 C   0  0  0  0  0  0  0  0  0  0  0  0
  1  2  2  0
  1  3  1  0
  2  4  1  0
  2  6  1  0
  3  7  2  0
  3 11  1  0
  4  7  1  0
  5  9  2  0
  5  8  1  0
  5 12  1  0
  6  9  1  0
  6 13  2  0
  7 22  1  0
  8 10  1  0
 10 14  2  0
 10 17  1  0
 11 24  2  0
 12 15  2  0
 12 18  1  0
 13 15  1  0
 16 17  1  0
 16 19  1  0
 19 20  2  0
 19 25  1  0
 20 21  1  0
 21 27  1  0
 21 26  2  0
 22 28  2  0
 23 25  2  0
 23 26  1  0
 24 28  1  0
M  END
>  <CHROM.0>  (2) 
-57.52960004,-71.30798756,63.19789462,-65.95411392,62.89511805

>  <CHROM.1>  (2) 
-34.61918592,-25.67122167,-99.18598693,-140.74095513,51.52468491,27.70011606
104.99091950,10.45771683,2.30946664,-0.00407018,2.60053937

>  <Name>  (2) 
5f0908992b311d362d1c5d1ba10e17f422bc624fc4d335b3cee54c0cb7ef6fbb

>  <RI>  (2) 
2.08598e+07

>  <Rbt.Current_Directory>  (2) 
/sysgen/workspace/users/bioinformatics/2111_DEHAAN_GASDERMIN/VS_SPECS

>  <Rbt.Executable>  (2) 
rbdock ($Id: //depot/dev/client3/rdock/2013.1/src/exe/rbdock.cxx#4 $)

>  <Rbt.Library>  (2) 
libRbt.so (2013.1, Build901 2013/11/27)

>  <Rbt.Parameter_File>  (2) 
/home/sruizcarmona/SOFT/GADI/rdock/rDock_2020.GADI/data/scripts/dock.prm

>  <Rbt.Receptor>  (2) 
gasd_rdock_free.prm

>  <SCORE>  (2) 
-31.829

>  <SCORE.INTER>  (2) 
-27.9402

>  <SCORE.INTER.CONST>  (2) 
1

>  <SCORE.INTER.POLAR>  (2) 
-3.38786

>  <SCORE.INTER.REPUL>  (2) 
0.048888

>  <SCORE.INTER.ROT>  (2) 
5

>  <SCORE.INTER.VDW>  (2) 
-27.0659

>  <SCORE.INTER.norm>  (2) 
-0.997865

>  <SCORE.INTRA>  (2) 
3.39853

>  <SCORE.INTRA.DIHEDRAL>  (2) 
5.75882

>  <SCORE.INTRA.DIHEDRAL.0>  (2) 
10.9545

>  <SCORE.INTRA.POLAR>  (2) 
0.00346726

>  <SCORE.INTRA.POLAR.0>  (2) 
-0.00346726

>  <SCORE.INTRA.REPUL>  (2) 
0

>  <SCORE.INTRA.REPUL.0>  (2) 
0

>  <SCORE.INTRA.VDW>  (2) 
0.507336

>  <SCORE.INTRA.VDW.0>  (2) 
-0.723739

>  <SCORE.INTRA.norm>  (2) 
0.121376

>  <SCORE.RESTR>  (2) 
0

>  <SCORE.RESTR.CAVITY>  (2) 
0

>  <SCORE.RESTR.norm>  (2) 
0

>  <SCORE.SYSTEM>  (2) 
-7.28728

>  <SCORE.SYSTEM.CONST>  (2) 
0

>  <SCORE.SYSTEM.DIHEDRAL>  (2) 
0.915665

>  <SCORE.SYSTEM.POLAR>  (2) 
-2.15686

>  <SCORE.SYSTEM.REPUL>  (2) 
0.00462477

>  <SCORE.SYSTEM.VDW>  (2) 
-0.434898

>  <SCORE.SYSTEM.norm>  (2) 
-0.26026

>  <SCORE.heavy>  (2) 
28

>  <SCORE.norm>  (2) 
-1.13675

$$$$
f2e43008cf34d63f75f8473ae598aa1a67f54b637d1bc960aa84e068154c3556
     RDKit          3D

 26 29  0  0  0  0  0  0  0  0999 V2000
   29.1507  105.3912   10.0085 C   0  0  0  0  0  0  0  0  0  0  0  0
   28.4684  106.2363    9.1861 N   0  0  0  0  0  0  0  0  0  0  0  0
   24.4395  103.2184   11.5387 C   0  0  0  0  0  0  0  0  0  0  0  0
   23.0351  102.6931   11.4123 C   0  0  0  0  0  0  0  0  0  0  0  0
   30.4535  107.1837    9.6691 C   0  0  0  0  0  0  0  0  0  0  0  0
   25.3898  102.3832   11.0758 N   0  0  0  0  0  0  0  0  0  0  0  0
   29.2516  107.3661    8.9528 C   0  0  0  0  0  0  0  0  0  0  0  0
   28.6636  104.0841   10.4928 C   0  0  0  0  0  0  0  0  0  0  0  0
   24.6554  104.3224   12.0384 O   0  0  0  0  0  0  0  0  0  0  0  0
   21.9151  103.5558   11.5600 C   0  0  0  0  0  0  0  0  0  0  0  0
   26.7987  102.5692   11.0454 C   0  0  0  0  0  0  0  0  0  0  0  0
   27.2782  103.8099   10.5752 C   0  0  0  0  0  0  0  0  0  0  0  0
   22.8319  101.3261   11.1084 C   0  0  0  0  0  0  0  0  0  0  0  0
   22.1448  104.8837   11.8657 O   0  0  0  0  0  0  0  0  0  0  0  0
   29.5690  103.0723   10.8856 C   0  0  0  0  0  0  0  0  0  0  0  0
   29.1051  101.8242   11.3404 C   0  0  0  0  0  0  0  0  0  0  0  0
   31.4702  108.1334    9.6561 C   0  0  0  0  0  0  0  0  0  0  0  0
   29.0136  108.5064    8.1919 C   0  0  0  0  0  0  0  0  0  0  0  0
   27.7250  101.5676   11.4173 C   0  0  0  0  0  0  0  0  0  0  0  0
   20.6109  103.0172   11.4059 C   0  0  0  0  0  0  0  0  0  0  0  0
   21.0578  105.6775   12.3187 C   0  0  0  0  0  0  0  0  0  0  0  0
   21.5334  100.8083   10.9601 C   0  0  0  0  0  0  0  0  0  0  0  0
   30.0380  109.4766    8.1713 C   0  0  0  0  0  0  0  0  0  0  0  0
   31.2397  109.2942    8.8875 C   0  0  0  0  0  0  0  0  0  0  0  0
   20.4230  101.6550   11.1095 C   0  0  0  0  0  0  0  0  0  0  0  0
   30.3559  105.9498   10.3111 N   0  0  0  0  0  0  0  0  0  0  0  0
  1  2  1  0
  1  8  1  0
  1 26  2  0
  2  7  1  0
  3  6  1  0
  3  4  1  0
  3  9  2  0
  4 10  2  0
  4 13  1  0
  5 17  1  0
  5  7  2  0
  5 26  1  0
  6 11  1  0
  7 18  1  0
  8 12  2  0
  8 15  1  0
 10 14  1  0
 10 20  1  0
 11 12  1  0
 11 19  2  0
 13 22  2  0
 14 21  1  0
 15 16  2  0
 16 19  1  0
 17 24  2  0
 18 23  2  0
 20 25  2  0
 22 25  1  0
 23 24  1  0
M  CHG  1  26   1
M  END
>  <CHROM.0>  (2) 
-57.75587961,-70.93276919,-61.86740543,68.04361514,178.47302966

>  <CHROM.1>  (2) 
-24.67756427,-165.27815248,-46.40031404,-165.51639173,26.34509138,104.54847104
10.61038035,-0.54572914,-0.12440215,2.90023658

>  <Name>  (2) 
f2e43008cf34d63f75f8473ae598aa1a67f54b637d1bc960aa84e068154c3556

>  <RI>  (2) 
2.08844e+07

>  <Rbt.Current_Directory>  (2) 
/sysgen/workspace/users/bioinformatics/2111_DEHAAN_GASDERMIN/VS_SPECS

>  <Rbt.Executable>  (2) 
rbdock ($Id: //depot/dev/client3/rdock/2013.1/src/exe/rbdock.cxx#4 $)

>  <Rbt.Library>  (2) 
libRbt.so (2013.1, Build901 2013/11/27)

>  <Rbt.Parameter_File>  (2) 
/home/sruizcarmona/SOFT/GADI/rdock/rDock_2020.GADI/data/scripts/dock.prm

>  <Rbt.Receptor>  (2) 
gasd_rdock_free.prm

>  <SCORE>  (2) 
-36.6043

>  <SCORE.INTER>  (2) 
-30.9401

>  <SCORE.INTER.CONST>  (2) 
1

>  <SCORE.INTER.POLAR>  (2) 
-5.05108

>  <SCORE.INTER.REPUL>  (2) 
0

>  <SCORE.INTER.ROT>  (2) 
4

>  <SCORE.INTER.VDW>  (2) 
-23.1664

>  <SCORE.INTER.norm>  (2) 
-1.19

>  <SCORE.INTRA>  (2) 
2.20099

>  <SCORE.INTRA.DIHEDRAL>  (2) 
2.12809

>  <SCORE.INTRA.DIHEDRAL.0>  (2) 
8.14273

>  <SCORE.INTRA.POLAR>  (2) 
0

>  <SCORE.INTRA.POLAR.0>  (2) 
0

>  <SCORE.INTRA.REPUL>  (2) 
0

>  <SCORE.INTRA.REPUL.0>  (2) 
0

>  <SCORE.INTRA.VDW>  (2) 
1.13695

>  <SCORE.INTRA.VDW.0>  (2) 
0.648685

>  <SCORE.INTRA.norm>  (2) 
0.0846534

>  <SCORE.RESTR>  (2) 
0

>  <SCORE.RESTR.CAVITY>  (2) 
0

>  <SCORE.RESTR.norm>  (2) 
0

>  <SCORE.SYSTEM>  (2) 
-7.86516

>  <SCORE.SYSTEM.CONST>  (2) 
0

>  <SCORE.SYSTEM.DIHEDRAL>  (2) 
0.949739

>  <SCORE.SYSTEM.POLAR>  (2) 
-2.19453

>  <SCORE.SYSTEM.REPUL>  (2) 
0.00429907

>  <SCORE.SYSTEM.VDW>  (2) 
-0.900134

>  <SCORE.SYSTEM.norm>  (2) 
-0.302506

>  <SCORE.heavy>  (2) 
26

>  <SCORE.norm>  (2) 
-1.40786

$$$$
ae319fc09112c5ea64f2906e5a677b0789cbc2a0cadd689c2b703ba70063d2d0
     RDKit          3D

 26 29  0  0  0  0  0  0  0  0999 V2000
   29.8400  105.3070    9.9026 C   0  0  0  0  0  0  0  0  0  0  0  0
   29.5245  106.0830    8.7564 C   0  0  0  0  0  0  0  0  0  0  0  0
   22.1666  102.1435   11.1958 S   0  0  0  0  0  0  0  0  0  0  0  0
   29.3957  104.0329   10.0969 N   0  0  0  0  0  0  0  0  0  0  0  0
   23.7626  102.8768   11.3517 C   0  0  0  0  0  0  0  0  0  0  0  0
   30.6481  106.0407   10.7602 N   0  0  0  0  0  0  0  0  0  0  0  0
   22.4763  104.6373   11.9357 N   0  0  0  0  0  0  0  0  0  0  0  0
   21.5386  103.7104   11.6943 C   0  0  0  0  0  0  0  0  0  0  0  0
   28.7501  105.5695    7.7910 N   0  0  0  0  0  0  0  0  0  0  0  0
   23.7629  104.1554   11.7373 N   0  0  0  0  0  0  0  0  0  0  0  0
   30.1794  107.3545    8.9333 C   0  0  0  0  0  0  0  0  0  0  0  0
   28.6387  103.6347    9.0660 C   0  0  0  0  0  0  0  0  0  0  0  0
   25.0123  102.2547   11.1120 N   0  0  0  0  0  0  0  0  0  0  0  0
   30.8652  107.2907   10.1852 C   0  0  0  0  0  0  0  0  0  0  0  0
   28.2989  104.3145    7.9585 N   0  0  0  0  0  0  0  0  0  0  0  0
   26.2399  102.7964   11.1989 C   0  0  0  0  0  0  0  0  0  0  0  0
   27.9543  101.9873    9.1513 S   0  0  0  0  0  0  0  0  0  0  0  0
   26.4700  103.9679   11.4950 O   0  0  0  0  0  0  0  0  0  0  0  0
   20.0724  103.9782   11.8352 C   0  0  0  0  0  0  0  0  0  0  0  0
   27.4045  101.8612   10.8820 C   0  0  0  0  0  0  0  0  0  0  0  0
   30.2728  108.5502    8.1833 C   0  0  0  0  0  0  0  0  0  0  0  0
   31.6122  108.3872   10.6576 C   0  0  0  0  0  0  0  0  0  0  0  0
   19.3767  102.9376   12.7250 C   0  0  0  0  0  0  0  0  0  0  0  0
   19.7867  105.4248   12.2642 C   0  0  0  0  0  0  0  0  0  0  0  0
   31.0202  109.6462    8.6567 C   0  0  0  0  0  0  0  0  0  0  0  0
   31.6894  109.5655    9.8923 C   0  0  0  0  0  0  0  0  0  0  0  0
  1  2  1  0
  1  4  2  0
  1  6  1  0
  2  9  2  0
  2 11  1  0
  3  5  1  0
  3  8  1  0
  4 12  1  0
  5 13  1  0
  5 10  2  0
  6 14  1  0
  7 10  1  0
  7  8  2  0
  8 19  1  0
  9 15  1  0
 11 21  2  0
 11 14  1  0
 12 15  2  0
 12 17  1  0
 13 16  1  0
 14 22  2  0
 16 20  1  0
 16 18  2  0
 17 20  1  0
 19 23  1  0
 19 24  1  0
 21 25  1  0
 22 26  1  0
 25 26  2  0
M  END
>  <CHROM.0>  (2) 
-59.77870081,163.82053225,-179.87920470,66.25424639,63.13678158

>  <CHROM.1>  (2) 
178.63854112,52.22613813,42.25630888,95.12779773,67.11966187,26.54224613
104.61931970,10.38247647,-0.36324583,-0.30792003,-3.03715150

>  <Name>  (2) 
ae319fc09112c5ea64f2906e5a677b0789cbc2a0cadd689c2b703ba70063d2d0

>  <RI>  (2) 
2.87077e+07

>  <Rbt.Current_Directory>  (2) 
/sysgen/workspace/users/bioinformatics/2111_DEHAAN_GASDERMIN/VS_SPECS

>  <Rbt.Executable>  (2) 
rbdock ($Id: //depot/dev/client3/rdock/2013.1/src/exe/rbdock.cxx#4 $)

>  <Rbt.Library>  (2) 
libRbt.so (2013.1, Build901 2013/11/27)

>  <Rbt.Parameter_File>  (2) 
/home/sruizcarmona/SOFT/GADI/rdock/rDock_2020.GADI/data/scripts/dock.prm

>  <Rbt.Receptor>  (2) 
gasd_rdock_free.prm

>  <SCORE>  (2) 
-36.122

>  <SCORE.INTER>  (2) 
-30.2639

>  <SCORE.INTER.CONST>  (2) 
1

>  <SCORE.INTER.POLAR>  (2) 
-4.65071

>  <SCORE.INTER.REPUL>  (2) 
0.0390156

>  <SCORE.INTER.ROT>  (2) 
5

>  <SCORE.INTER.VDW>  (2) 
-25.0466

>  <SCORE.INTER.norm>  (2) 
-1.164

>  <SCORE.INTRA>  (2) 
0.501146

>  <SCORE.INTRA.DIHEDRAL>  (2) 
0.143392

>  <SCORE.INTRA.DIHEDRAL.0>  (2) 
4.39279

>  <SCORE.INTRA.POLAR>  (2) 
0

>  <SCORE.INTRA.POLAR.0>  (2) 
0

>  <SCORE.INTRA.REPUL>  (2) 
0

>  <SCORE.INTRA.REPUL.0>  (2) 
0

>  <SCORE.INTRA.VDW>  (2) 
0.42945

>  <SCORE.INTRA.VDW.0>  (2) 
-1.5609

>  <SCORE.INTRA.norm>  (2) 
0.0192748

>  <SCORE.RESTR>  (2) 
0

>  <SCORE.RESTR.CAVITY>  (2) 
0

>  <SCORE.RESTR.norm>  (2) 
0

>  <SCORE.SYSTEM>  (2) 
-6.3592

>  <SCORE.SYSTEM.CONST>  (2) 
0

>  <SCORE.SYSTEM.DIHEDRAL>  (2) 
1.46253

>  <SCORE.SYSTEM.POLAR>  (2) 
-1.55119

>  <SCORE.SYSTEM.REPUL>  (2) 
0.000979042

>  <SCORE.SYSTEM.VDW>  (2) 
-1.82131

>  <SCORE.SYSTEM.norm>  (2) 
-0.244584

>  <SCORE.heavy>  (2) 
26

>  <SCORE.norm>  (2) 
-1.38931

$$$$
f814b3302b4525f2aeb2e277fa34917b5b438856474ad4b8df8f0822da62ef89
     RDKit          3D

 30 33  0  0  0  0  0  0  0  0999 V2000
   29.6025  104.9684   10.2477 C   0  0  0  0  0  0  0  0  0  0  0  0
   28.9008  105.1075    9.1575 N   0  0  0  0  0  0  0  0  0  0  0  0
   22.9304  103.4709   11.6677 C   0  0  0  0  0  0  0  0  0  0  0  0
   30.4831  105.9076   10.7650 N   0  0  0  0  0  0  0  0  0  0  0  0
   29.0335  106.3009    8.4316 C   0  0  0  0  0  0  0  0  0  0  0  0
   29.9823  107.3724    8.9435 C   0  0  0  0  0  0  0  0  0  0  0  0
   22.6569  104.7979   11.9085 O   0  0  0  0  0  0  0  0  0  0  0  0
   24.3267  103.0485   11.4028 C   0  0  0  0  0  0  0  0  0  0  0  0
   21.7903  102.7087   11.8011 C   0  0  0  0  0  0  0  0  0  0  0  0
   30.7014  107.1310   10.1365 C   0  0  0  0  0  0  0  0  0  0  0  0
   29.4979  103.7027   11.0690 C   0  0  0  0  0  0  0  0  0  0  0  0
   21.3056  104.9009   12.1601 C   0  0  0  0  0  0  0  0  0  0  0  0
   20.7201  103.6136   12.1045 C   0  0  0  0  0  0  0  0  0  0  0  0
   24.5669  101.8930   10.7305 N   0  0  0  0  0  0  0  0  0  0  0  0
   28.4092  106.5144    7.3932 O   0  0  0  0  0  0  0  0  0  0  0  0
   25.2371  103.7614   11.8274 O   0  0  0  0  0  0  0  0  0  0  0  0
   30.1794  103.5358   12.0822 O   0  0  0  0  0  0  0  0  0  0  0  0
   28.6163  102.7989   10.6083 N   0  0  0  0  0  0  0  0  0  0  0  0
   30.1648  108.5973    8.2637 C   0  0  0  0  0  0  0  0  0  0  0  0
   26.8468  101.3683   11.5845 C   0  0  0  0  0  0  0  0  0  0  0  0
   31.5924  108.0917   10.6519 C   0  0  0  0  0  0  0  0  0  0  0  0
   25.9329  101.5046   10.3542 C   0  0  0  0  0  0  0  0  0  0  0  0
   20.5742  106.0673   12.4395 C   0  0  0  0  0  0  0  0  0  0  0  0
   19.3292  103.5280   12.3472 C   0  0  0  0  0  0  0  0  0  0  0  0
   28.3344  101.5088   11.2254 C   0  0  0  0  0  0  0  0  0  0  0  0
   23.5351  100.9209   10.3541 C   0  0  0  0  0  0  0  0  0  0  0  0
   31.0561  109.5615    8.7768 C   0  0  0  0  0  0  0  0  0  0  0  0
   31.7680  109.3101    9.9673 C   0  0  0  0  0  0  0  0  0  0  0  0
   18.5722  104.6864   12.6286 C   0  0  0  0  0  0  0  0  0  0  0  0
   19.1908  105.9537   12.6750 C   0  0  0  0  0  0  0  0  0  0  0  0
  1  4  1  0
  1 11  1  0
  1  2  2  0
  2  5  1  0
  3  8  1  0
  3  7  1  0
  3  9  2  0
  4 10  1  0
  5 15  2  0
  5  6  1  0
  6 19  2  0
  6 10  1  0
  7 12  1  0
  8 14  1  0
  8 16  2  0
  9 13  1  0
 10 21  2  0
 11 17  2  0
 11 18  1  0
 12 23  2  0
 12 13  1  0
 13 24  2  0
 14 22  1  0
 14 26  1  0
 18 25  1  0
 19 27  1  0
 20 25  1  0
 20 22  1  0
 21 28  1  0
 23 30  1  0
 24 29  1  0
 27 28  2  0
 29 30  2  0
M  END
>  <CHROM.0>  (2) 
-58.85077554,161.67457742,-177.81432853,66.06133826,64.40743254

>  <CHROM.1>  (2) 
177.97692910,-157.41177266,59.24047189,122.17982382,59.12169944,-157.70250349
26.23009755,104.69346137,10.78758240,-0.34008262,-0.20104941,2.99240108

>  <Name>  (2) 
f814b3302b4525f2aeb2e277fa34917b5b438856474ad4b8df8f0822da62ef89

>  <RI>  (2) 
3.42824e+07

>  <Rbt.Current_Directory>  (2) 
/sysgen/workspace/users/bioinformatics/2111_DEHAAN_GASDERMIN/VS_SPECS

>  <Rbt.Executable>  (2) 
rbdock ($Id: //depot/dev/client3/rdock/2013.1/src/exe/rbdock.cxx#4 $)

>  <Rbt.Library>  (2) 
libRbt.so (2013.1, Build901 2013/11/27)

>  <Rbt.Parameter_File>  (2) 
/home/sruizcarmona/SOFT/GADI/rdock/rDock_2020.GADI/data/scripts/dock.prm

>  <Rbt.Receptor>  (2) 
gasd_rdock_free.prm

>  <SCORE>  (2) 
-33.8154

>  <SCORE.INTER>  (2) 
-29.0873

>  <SCORE.INTER.CONST>  (2) 
1

>  <SCORE.INTER.POLAR>  (2) 
-3.64806

>  <SCORE.INTER.REPUL>  (2) 
0.0197567

>  <SCORE.INTER.ROT>  (2) 
6

>  <SCORE.INTER.VDW>  (2) 
-28.1827

>  <SCORE.INTER.norm>  (2) 
-0.969578

>  <SCORE.INTRA>  (2) 
1.36783

>  <SCORE.INTRA.DIHEDRAL>  (2) 
-0.748748

>  <SCORE.INTRA.DIHEDRAL.0>  (2) 
6.95632

>  <SCORE.INTRA.POLAR>  (2) 
0.000436077

>  <SCORE.INTRA.POLAR.0>  (2) 
-0.0683406

>  <SCORE.INTRA.REPUL>  (2) 
0

>  <SCORE.INTRA.REPUL.0>  (2) 
0

>  <SCORE.INTRA.VDW>  (2) 
1.74073

>  <SCORE.INTRA.VDW.0>  (2) 
-1.41873

>  <SCORE.INTRA.norm>  (2) 
0.0455945

>  <SCORE.RESTR>  (2) 
0

>  <SCORE.RESTR.CAVITY>  (2) 
0

>  <SCORE.RESTR.norm>  (2) 
0

>  <SCORE.SYSTEM>  (2) 
-6.09586

>  <SCORE.SYSTEM.CONST>  (2) 
0

>  <SCORE.SYSTEM.DIHEDRAL>  (2) 
1.84447

>  <SCORE.SYSTEM.POLAR>  (2) 
-1.55875

>  <SCORE.SYSTEM.REPUL>  (2) 
0.0306538

>  <SCORE.SYSTEM.VDW>  (2) 
-1.87161

>  <SCORE.SYSTEM.norm>  (2) 
-0.203195

>  <SCORE.heavy>  (2) 
30

>  <SCORE.norm>  (2) 
-1.12718

$$$$
0ddc1ab16d8305179fa1a9ab59a0021b9ad44bf5a36b605e09a826827f4766b5
     RDKit          3D

 31 34  0  0  0  0  0  0  0  0999 V2000
   24.4184  102.9162   11.6141 C   0  0  0  0  0  0  0  0  0  0  0  0
   25.2500  102.2281   10.8016 N   0  0  0  0  0  0  0  0  0  0  0  0
   22.0524  103.4724   11.9188 N   0  0  0  0  0  0  0  0  0  0  0  0
   22.4315  104.7270   11.5439 N   0  0  0  0  0  0  0  0  0  0  0  0
   26.3234  103.0453   10.7554 C   0  0  0  0  0  0  0  0  0  0  0  0
   24.9205  104.0784   12.0363 N   0  0  0  0  0  0  0  0  0  0  0  0
   26.1730  104.1618   11.4743 N   0  0  0  0  0  0  0  0  0  0  0  0
   23.0571  102.4265   12.0096 C   0  0  0  0  0  0  0  0  0  0  0  0
   21.3830  105.4937   11.5296 N   0  0  0  0  0  0  0  0  0  0  0  0
   20.6976  103.4087   12.1890 C   0  0  0  0  0  0  0  0  0  0  0  0
   20.2924  104.7353   11.9200 C   0  0  0  0  0  0  0  0  0  0  0  0
   29.3128  104.9630    9.9435 C   0  0  0  0  0  0  0  0  0  0  0  0
   27.7675  102.6431    9.8165 S   0  0  0  0  0  0  0  0  0  0  0  0
   30.5973  106.9604    9.9998 N   0  0  0  0  0  0  0  0  0  0  0  0
   30.2115  105.7760   10.5202 N   0  0  0  0  0  0  0  0  0  0  0  0
   28.7559  105.2108    8.8735 O   0  0  0  0  0  0  0  0  0  0  0  0
   30.6188  111.3692    7.4510 N   0  0  0  0  0  0  0  0  0  0  0  0
   25.0598  100.9396   10.1507 C   0  0  0  0  0  0  0  0  0  0  0  0
   29.0028  103.6618   10.6799 C   0  0  0  0  0  0  0  0  0  0  0  0
   25.8241   99.8295   10.8435 C   0  0  0  0  0  0  0  0  0  0  0  0
   29.7370  107.5693    9.2649 C   0  0  0  0  0  0  0  0  0  0  0  0
   25.2525   98.7813   11.4546 C   0  0  0  0  0  0  0  0  0  0  0  0
   30.0188  108.8663    8.6329 C   0  0  0  0  0  0  0  0  0  0  0  0
   19.7928  102.4180   12.6108 C   0  0  0  0  0  0  0  0  0  0  0  0
   18.9271  105.0633   12.0796 C   0  0  0  0  0  0  0  0  0  0  0  0
   31.4473  110.8088    8.3567 C   0  0  0  0  0  0  0  0  0  0  0  0
   29.4942  110.6975    7.1266 C   0  0  0  0  0  0  0  0  0  0  0  0
   31.1953  109.5672    8.9733 C   0  0  0  0  0  0  0  0  0  0  0  0
   29.1485  109.4508    7.6842 C   0  0  0  0  0  0  0  0  0  0  0  0
   18.4357  102.7620   12.7653 C   0  0  0  0  0  0  0  0  0  0  0  0
   18.0057  104.0799   12.4997 C   0  0  0  0  0  0  0  0  0  0  0  0
  1  2  1  0
  1  6  2  0
  1  8  1  0
  2  5  1  0
  2 18  1  0
  3  8  1  0
  3  4  1  0
  3 10  1  0
  4  9  2  0
  5 13  1  0
  5  7  2  0
  6  7  1  0
  9 11  1  0
 10 11  2  0
 10 24  1  0
 11 25  1  0
 12 19  1  0
 12 15  1  0
 12 16  2  0
 13 19  1  0
 14 15  1  0
 14 21  2  0
 17 26  2  0
 17 27  1  0
 18 20  1  0
 20 22  2  0
 21 23  1  0
 23 28  2  0
 23 29  1  0
 24 30  2  0
 25 31  2  0
 26 28  1  0
 27 29  2  0
 30 31  1  0
M  END
>  <CHROM.0>  (2) 
-63.39270423,-70.60067387,64.48391798,65.44901419,62.13472790

>  <CHROM.1>  (2) 
-135.06885286,-103.56853055,-1.78793831,-157.23402412,179.66433697,-100.16792527
28.27644223,115.58928973,-8.69446850,25.80204006,104.79164751,10.52843733
-2.56222560,0.24270290,-0.18713771

>  <Name>  (2) 
0ddc1ab16d8305179fa1a9ab59a0021b9ad44bf5a36b605e09a826827f4766b5

>  <RI>  (2) 
3.74896e+07

>  <Rbt.Current_Directory>  (2) 
/sysgen/workspace/users/bioinformatics/2111_DEHAAN_GASDERMIN/VS_SPECS

>  <Rbt.Executable>  (2) 
rbdock ($Id: //depot/dev/client3/rdock/2013.1/src/exe/rbdock.cxx#4 $)

>  <Rbt.Library>  (2) 
libRbt.so (2013.1, Build901 2013/11/27)

>  <Rbt.Parameter_File>  (2) 
/home/sruizcarmona/SOFT/GADI/rdock/rDock_2020.GADI/data/scripts/dock.prm

>  <Rbt.Receptor>  (2) 
gasd_rdock_free.prm

>  <SCORE>  (2) 
-36.3309

>  <SCORE.INTER>  (2) 
-33.2958

>  <SCORE.INTER.CONST>  (2) 
1

>  <SCORE.INTER.POLAR>  (2) 
-5.01629

>  <SCORE.INTER.REPUL>  (2) 
0

>  <SCORE.INTER.ROT>  (2) 
9

>  <SCORE.INTER.VDW>  (2) 
-30.6404

>  <SCORE.INTER.norm>  (2) 
-1.07406

>  <SCORE.INTRA>  (2) 
6.03574

>  <SCORE.INTRA.DIHEDRAL>  (2) 
4.10371

>  <SCORE.INTRA.DIHEDRAL.0>  (2) 
7.62388

>  <SCORE.INTRA.POLAR>  (2) 
0

>  <SCORE.INTRA.POLAR.0>  (2) 
0

>  <SCORE.INTRA.REPUL>  (2) 
0

>  <SCORE.INTRA.REPUL.0>  (2) 
0

>  <SCORE.INTRA.VDW>  (2) 
3.98388

>  <SCORE.INTRA.VDW.0>  (2) 
-3.51064

>  <SCORE.INTRA.norm>  (2) 
0.194701

>  <SCORE.RESTR>  (2) 
0

>  <SCORE.RESTR.CAVITY>  (2) 
0

>  <SCORE.RESTR.norm>  (2) 
0

>  <SCORE.SYSTEM>  (2) 
-9.07086

>  <SCORE.SYSTEM.CONST>  (2) 
0

>  <SCORE.SYSTEM.DIHEDRAL>  (2) 
0.871679

>  <SCORE.SYSTEM.POLAR>  (2) 
-2.37846

>  <SCORE.SYSTEM.VDW>  (2) 
-1.41994

>  <SCORE.SYSTEM.norm>  (2) 
-0.292609

>  <SCORE.heavy>  (2) 
31

>  <SCORE.norm>  (2) 
-1.17196

$$$$
e66b02a0fddd0bc19a04ab7e809ac53314e966f78efafe1f8e69d0a05980b4d1
     RDKit          3D

 28 32  0  0  0  0  0  0  0  0999 V2000
   28.8789  103.7418   10.3409 S   0  0  0  0  0  0  0  0  0  0  0  0
   21.0390  104.9393   12.1682 C   0  0  0  0  0  0  0  0  0  0  0  0
   22.3159  104.8078   11.9469 N   0  0  0  0  0  0  0  0  0  0  0  0
   20.3625  103.7464   12.3052 N   0  0  0  0  0  0  0  0  0  0  0  0
   22.5135  103.4220   11.9339 C   0  0  0  0  0  0  0  0  0  0  0  0
   21.3250  102.7627   12.1523 C   0  0  0  0  0  0  0  0  0  0  0  0
   27.2869  104.0675   10.9526 N   0  0  0  0  0  0  0  0  0  0  0  0
   29.4962  105.3634    9.9050 C   0  0  0  0  0  0  0  0  0  0  0  0
   19.8164  106.1917   12.3625 S   0  0  0  0  0  0  0  0  0  0  0  0
   23.8516  102.8528   11.7088 C   0  0  0  0  0  0  0  0  0  0  0  0
   29.6452  103.2344   11.4893 O   0  0  0  0  0  0  0  0  0  0  0  0
   28.6989  102.9286    9.1280 O   0  0  0  0  0  0  0  0  0  0  0  0
   28.7714  106.1460    8.9851 C   0  0  0  0  0  0  0  0  0  0  0  0
   19.0209  103.7943   12.5391 C   0  0  0  0  0  0  0  0  0  0  0  0
   18.5021  105.0584   12.6100 C   0  0  0  0  0  0  0  0  0  0  0  0
   29.2513  107.4213    8.6234 C   0  0  0  0  0  0  0  0  0  0  0  0
   26.2388  103.1791   11.2179 C   0  0  0  0  0  0  0  0  0  0  0  0
   24.9486  103.7030   11.4397 C   0  0  0  0  0  0  0  0  0  0  0  0
   30.6944  105.8427   10.4712 C   0  0  0  0  0  0  0  0  0  0  0  0
   30.4579  107.9085    9.1884 C   0  0  0  0  0  0  0  0  0  0  0  0
   31.1743  107.1167   10.1107 C   0  0  0  0  0  0  0  0  0  0  0  0
   24.0703  101.4564   11.7561 C   0  0  0  0  0  0  0  0  0  0  0  0
   25.3562  100.9262   11.5419 C   0  0  0  0  0  0  0  0  0  0  0  0
   26.4388  101.7836   11.2753 C   0  0  0  0  0  0  0  0  0  0  0  0
   28.5372  108.2145    7.7017 C   0  0  0  0  0  0  0  0  0  0  0  0
   30.9366  109.1842    8.8249 C   0  0  0  0  0  0  0  0  0  0  0  0
   29.0210  109.4877    7.3430 C   0  0  0  0  0  0  0  0  0  0  0  0
   30.2188  109.9719    7.9039 C   0  0  0  0  0  0  0  0  0  0  0  0
  1  7  1  0
  1  8  1  0
  1 11  2  0
  1 12  2  0
  2  3  2  0
  2  9  1  0
  2  4  1  0
  3  5  1  0
  4  6  1  0
  4 14  1  0
  5 10  1  0
  5  6  2  0
  7 17  1  0
  8 13  2  0
  8 19  1  0
  9 15  1  0
 10 18  2  0
 10 22  1  0
 13 16  1  0
 14 15  2  0
 16 25  2  0
 16 20  1  0
 17 18  1  0
 17 24  2  0
 19 21  2  0
 20 21  1  0
 20 26  2  0
 22 23  2  0
 23 24  1  0
 25 27  1  0
 26 28  1  0
 27 28  2  0
M  END
>  <CHROM.0>  (2) 
-57.32802810,-71.48984995,62.16042293,67.14588675,178.99156727

>  <CHROM.1>  (2) 
167.07038594,-57.36761303,-2.95923366,-166.62329547,25.90024843,104.93877962
10.71040072,-0.35879871,-0.23323291,2.84684533

>  <Name>  (2) 
e66b02a0fddd0bc19a04ab7e809ac53314e966f78efafe1f8e69d0a05980b4d1

>  <RI>  (2) 
2.33666e+07

>  <Rbt.Current_Directory>  (2) 
/sysgen/workspace/users/bioinformatics/2111_DEHAAN_GASDERMIN/VS_SPECS

>  <Rbt.Executable>  (2) 
rbdock ($Id: //depot/dev/client3/rdock/2013.1/src/exe/rbdock.cxx#4 $)

>  <Rbt.Library>  (2) 
libRbt.so (2013.1, Build901 2013/11/27)

>  <Rbt.Parameter_File>  (2) 
/home/sruizcarmona/SOFT/GADI/rdock/rDock_2020.GADI/data/scripts/dock.prm

>  <Rbt.Receptor>  (2) 
gasd_rdock_free.prm

>  <SCORE>  (2) 
-33.4855

>  <SCORE.INTER>  (2) 
-26.1047

>  <SCORE.INTER.CONST>  (2) 
1

>  <SCORE.INTER.POLAR>  (2) 
-1.36326

>  <SCORE.INTER.REPUL>  (2) 
0

>  <SCORE.INTER.ROT>  (2) 
4

>  <SCORE.INTER.VDW>  (2) 
-30.8696

>  <SCORE.INTER.norm>  (2) 
-0.932311

>  <SCORE.INTRA>  (2) 
0.476466

>  <SCORE.INTRA.DIHEDRAL>  (2) 
0.100447

>  <SCORE.INTRA.DIHEDRAL.0>  (2) 
2.84308

>  <SCORE.INTRA.POLAR>  (2) 
0

>  <SCORE.INTRA.POLAR.0>  (2) 
0

>  <SCORE.INTRA.REPUL>  (2) 
0

>  <SCORE.INTRA.REPUL.0>  (2) 
0

>  <SCORE.INTRA.VDW>  (2) 
0.426242

>  <SCORE.INTRA.VDW.0>  (2) 
-2.32526

>  <SCORE.INTRA.norm>  (2) 
0.0170166

>  <SCORE.RESTR>  (2) 
0

>  <SCORE.RESTR.CAVITY>  (2) 
0

>  <SCORE.RESTR.norm>  (2) 
0

>  <SCORE.SYSTEM>  (2) 
-7.85724

>  <SCORE.SYSTEM.CONST>  (2) 
0

>  <SCORE.SYSTEM.DIHEDRAL>  (2) 
0.951906

>  <SCORE.SYSTEM.POLAR>  (2) 
-2.21576

>  <SCORE.SYSTEM.REPUL>  (2) 
0.00490673

>  <SCORE.SYSTEM.VDW>  (2) 
-0.824163

>  <SCORE.SYSTEM.norm>  (2) 
-0.280616

>  <SCORE.heavy>  (2) 
28

>  <SCORE.norm>  (2) 
-1.19591

$$$$
a180130972ef81abee0885bfe3d291cddb865015e4730a69a6a66f51604b0a2a
     RDKit          3D

 20 22  0  0  0  0  0  0  0  0999 V2000
   26.0314  103.9875   11.4479 N   0  0  0  0  0  0  0  0  0  0  0  0
   29.2084  105.9463    8.9994 C   0  0  0  0  0  0  0  0  0  0  0  0
   30.4477  106.4882    9.1780 N   0  0  0  0  0  0  0  0  0  0  0  0
   27.0029  103.2717   10.8808 C   0  0  0  0  0  0  0  0  0  0  0  0
   24.7982  103.4394   11.4576 C   0  0  0  0  0  0  0  0  0  0  0  0
   24.5522  102.1704   10.8949 C   0  0  0  0  0  0  0  0  0  0  0  0
   30.4167  107.8677    8.9605 C   0  0  0  0  0  0  0  0  0  0  0  0
   26.8918  102.0659   10.3184 N   0  0  0  0  0  0  0  0  0  0  0  0
   29.0812  108.1741    8.6315 C   0  0  0  0  0  0  0  0  0  0  0  0
   25.6613  101.5107   10.3258 C   0  0  0  0  0  0  0  0  0  0  0  0
   28.6146  104.0390   10.8919 S   0  0  0  0  0  0  0  0  0  0  0  0
   28.8498  104.4995    9.1447 C   0  0  0  0  0  0  0  0  0  0  0  0
   23.7749  104.1370   12.0263 O   0  0  0  0  0  0  0  0  0  0  0  0
   31.7241  105.8667    9.5423 C   0  0  0  0  0  0  0  0  0  0  0  0
   31.4023  108.8512    9.0182 C   0  0  0  0  0  0  0  0  0  0  0  0
   28.6697  109.4725    8.3460 C   0  0  0  0  0  0  0  0  0  0  0  0
   25.5273  100.1453    9.6866 C   0  0  0  0  0  0  0  0  0  0  0  0
   30.9975  110.1719    8.7308 C   0  0  0  0  0  0  0  0  0  0  0  0
   29.6599  110.4761    8.4017 C   0  0  0  0  0  0  0  0  0  0  0  0
   28.3721  106.9727    8.6654 N   0  0  0  0  0  0  0  0  0  0  0  0
  1  4  2  0
  1  5  1  0
  2 12  1  0
  2  3  1  0
  2 20  2  0
  3  7  1  0
  3 14  1  0
  4 11  1  0
  4  8  1  0
  5 13  1  0
  5  6  2  0
  6 10  1  0
  7 15  2  0
  7  9  1  0
  8 10  2  0
  9 16  2  0
  9 20  1  0
 10 17  1  0
 11 12  1  0
 15 18  1  0
 16 19  1  0
 18 19  2  0
M  CHG  1  20   1
M  END
>  <CHROM.0>  (1) 
-59.92821273,-71.30373911,-177.40449360,67.63030926,63.97250009

>  <CHROM.1>  (1) 
80.46345047,-108.01132247,-179.60747550,127.33427910,28.07062777,105.32989012
9.87295732,2.21931418,-0.25112681,3.00825837

>  <Name>  (1) 
a180130972ef81abee0885bfe3d291cddb865015e4730a69a6a66f51604b0a2a

>  <RI>  (1) 
2.75322e+07

>  <Rbt.Current_Directory>  (1) 
/sysgen/workspace/users/bioinformatics/2111_DEHAAN_GASDERMIN/VS_SPECS

>  <Rbt.Executable>  (1) 
rbdock ($Id: //depot/dev/client3/rdock/2013.1/src/exe/rbdock.cxx#4 $)

>  <Rbt.Library>  (1) 
libRbt.so (2013.1, Build901 2013/11/27)

>  <Rbt.Parameter_File>  (1) 
/home/sruizcarmona/SOFT/GADI/rdock/rDock_2020.GADI/data/scripts/dock.prm

>  <Rbt.Receptor>  (1) 
gasd_rdock_free.prm

>  <SCORE>  (1) 
-34.9709

>  <SCORE.INTER>  (1) 
-26.139

>  <SCORE.INTER.CONST>  (1) 
1

>  <SCORE.INTER.POLAR>  (1) 
-3.52335

>  <SCORE.INTER.REPUL>  (1) 
0

>  <SCORE.INTER.ROT>  (1) 
3

>  <SCORE.INTER.VDW>  (1) 
-22.5597

>  <SCORE.INTER.norm>  (1) 
-1.30695

>  <SCORE.INTRA>  (1) 
0.413515

>  <SCORE.INTRA.DIHEDRAL>  (1) 
2.31314

>  <SCORE.INTRA.DIHEDRAL.0>  (1) 
3.33597

>  <SCORE.INTRA.POLAR>  (1) 
0

>  <SCORE.INTRA.POLAR.0>  (1) 
0

>  <SCORE.INTRA.REPUL>  (1) 
0

>  <SCORE.INTRA.REPUL.0>  (1) 
0

>  <SCORE.INTRA.VDW>  (1) 
-0.743054

>  <SCORE.INTRA.VDW.0>  (1) 
-0.114839

>  <SCORE.INTRA.norm>  (1) 
0.0206757

>  <SCORE.RESTR>  (1) 
0

>  <SCORE.RESTR.CAVITY>  (1) 
0

>  <SCORE.RESTR.norm>  (1) 
0

>  <SCORE.SYSTEM>  (1) 
-9.24533

>  <SCORE.SYSTEM.CONST>  (1) 
0

>  <SCORE.SYSTEM.DIHEDRAL>  (1) 
1.0143

>  <SCORE.SYSTEM.POLAR>  (1) 
-2.44857

>  <SCORE.SYSTEM.REPUL>  (1) 
0.000706236

>  <SCORE.SYSTEM.VDW>  (1) 
-1.43087

>  <SCORE.SYSTEM.norm>  (1) 
-0.462266

>  <SCORE.heavy>  (1) 
20

>  <SCORE.norm>  (1) 
-1.74854

$$$$
b0f20ee74a21cf451f08da3e31308015fd4a08634cb0f99360762bfb7e7947ef
     RDKit          3D

 22 25  0  0  0  0  0  0  0  0999 V2000
   25.9023  103.9684   11.5842 N   0  0  0  0  0  0  0  0  0  0  0  0
   24.6005  103.4496   11.5261 C   0  0  0  0  0  0  0  0  0  0  0  0
   26.8777  103.3217   11.0117 C   0  0  0  0  0  0  0  0  0  0  0  0
   24.3681  102.1427   10.7929 C   0  0  0  0  0  0  0  0  0  0  0  0
   26.7102  102.1241   10.3312 N   0  0  0  0  0  0  0  0  0  0  0  0
   29.2530  105.6902    9.1196 C   0  0  0  0  0  0  0  0  0  0  0  0
   28.4583  106.7377    8.7584 N   0  0  0  0  0  0  0  0  0  0  0  0
   25.4732  101.4987   10.1970 C   0  0  0  0  0  0  0  0  0  0  0  0
   30.5126  107.5563    9.1518 C   0  0  0  0  0  0  0  0  0  0  0  0
   29.2060  107.9135    8.7673 C   0  0  0  0  0  0  0  0  0  0  0  0
   28.6231  103.8226   10.9739 S   0  0  0  0  0  0  0  0  0  0  0  0
   23.6393  104.0140   12.0470 O   0  0  0  0  0  0  0  0  0  0  0  0
   28.8311  104.2641    9.2264 C   0  0  0  0  0  0  0  0  0  0  0  0
   23.0870  101.5562   10.6903 C   0  0  0  0  0  0  0  0  0  0  0  0
   25.3155  100.2831    9.5038 C   0  0  0  0  0  0  0  0  0  0  0  0
   31.5315  108.4970    9.2646 C   0  0  0  0  0  0  0  0  0  0  0  0
   28.8560  109.2285    8.4771 C   0  0  0  0  0  0  0  0  0  0  0  0
   22.9244  100.3392    9.9974 C   0  0  0  0  0  0  0  0  0  0  0  0
   24.0352   99.7041    9.4056 C   0  0  0  0  0  0  0  0  0  0  0  0
   29.8804  110.1927    8.5879 C   0  0  0  0  0  0  0  0  0  0  0  0
   31.1896  109.8347    8.9732 C   0  0  0  0  0  0  0  0  0  0  0  0
   30.5033  106.1785    9.3602 N   0  0  0  0  0  0  0  0  0  0  0  0
  1  2  1  0
  1  3  2  0
  2  4  1  0
  2 12  2  0
  3  5  1  0
  3 11  1  0
  4 14  2  0
  4  8  1  0
  5  8  1  0
  6 13  1  0
  6  7  1  0
  6 22  2  0
  7 10  1  0
  8 15  2  0
  9 16  1  0
  9 10  2  0
  9 22  1  0
 10 17  1  0
 11 13  1  0
 14 18  1  0
 15 19  1  0
 16 21  2  0
 17 20  2  0
 18 19  2  0
 20 21  1  0
M  CHG  1  22   1
M  END
>  <CHROM.0>  (2) 
-59.91980247,-72.22702804,179.96903959,66.94734531,62.65550708

>  <CHROM.1>  (2) 
-110.09398012,-103.55296223,120.66753741,27.34098613,104.59679634,9.97432279
2.29047972,-0.25037122,3.13433550

>  <Name>  (2) 
b0f20ee74a21cf451f08da3e31308015fd4a08634cb0f99360762bfb7e7947ef

>  <RI>  (2) 
2.58037e+07

>  <Rbt.Current_Directory>  (2) 
/sysgen/workspace/users/bioinformatics/2111_DEHAAN_GASDERMIN/VS_SPECS

>  <Rbt.Executable>  (2) 
rbdock ($Id: //depot/dev/client3/rdock/2013.1/src/exe/rbdock.cxx#4 $)

>  <Rbt.Library>  (2) 
libRbt.so (2013.1, Build901 2013/11/27)

>  <Rbt.Parameter_File>  (2) 
/home/sruizcarmona/SOFT/GADI/rdock/rDock_2020.GADI/data/scripts/dock.prm

>  <Rbt.Receptor>  (2) 
gasd_rdock_free.prm

>  <SCORE>  (2) 
-33.6771

>  <SCORE.INTER>  (2) 
-25.334

>  <SCORE.INTER.CONST>  (2) 
1

>  <SCORE.INTER.POLAR>  (2) 
-3.52455

>  <SCORE.INTER.REPUL>  (2) 
0

>  <SCORE.INTER.ROT>  (2) 
3

>  <SCORE.INTER.VDW>  (2) 
-21.7505

>  <SCORE.INTER.norm>  (2) 
-1.15154

>  <SCORE.INTRA>  (2) 
0.899733

>  <SCORE.INTRA.DIHEDRAL>  (2) 
2.4109

>  <SCORE.INTRA.DIHEDRAL.0>  (2) 
3.32942

>  <SCORE.INTRA.POLAR>  (2) 
0

>  <SCORE.INTRA.POLAR.0>  (2) 
0

>  <SCORE.INTRA.REPUL>  (2) 
0

>  <SCORE.INTRA.REPUL.0>  (2) 
0

>  <SCORE.INTRA.VDW>  (2) 
-0.305716

>  <SCORE.INTRA.VDW.0>  (2) 
-0.770711

>  <SCORE.INTRA.norm>  (2) 
0.040897

>  <SCORE.RESTR>  (2) 
0

>  <SCORE.RESTR.CAVITY>  (2) 
0

>  <SCORE.RESTR.norm>  (2) 
0

>  <SCORE.SYSTEM>  (2) 
-9.24288

>  <SCORE.SYSTEM.CONST>  (2) 
0

>  <SCORE.SYSTEM.DIHEDRAL>  (2) 
0.990617

>  <SCORE.SYSTEM.POLAR>  (2) 
-2.46812

>  <SCORE.SYSTEM.REPUL>  (2) 
0.000721676

>  <SCORE.SYSTEM.VDW>  (2) 
-1.3502

>  <SCORE.SYSTEM.norm>  (2) 
-0.420131

>  <SCORE.heavy>  (2) 
22

>  <SCORE.norm>  (2) 
-1.53078

$$$$
38b8a371683d61699d2fc30b320f0f47c89d62a80b9d3e8338ef233eee261a70
     RDKit          3D

 31 34  0  0  0  0  0  0  0  0999 V2000
   23.8093  102.1917   11.4273 C   0  0  0  0  0  0  0  0  0  0  0  0
   23.4248  103.4741   11.5739 N   0  0  0  0  0  0  0  0  0  0  0  0
   22.1212  103.9876   11.7987 C   0  0  0  0  0  0  0  0  0  0  0  0
   25.2832  101.9937   11.2116 C   0  0  0  0  0  0  0  0  0  0  0  0
   29.6213  104.2614   10.5473 C   0  0  0  0  0  0  0  0  0  0  0  0
   21.9896  105.3177   12.0038 N   0  0  0  0  0  0  0  0  0  0  0  0
   28.2919  104.1408   10.7203 N   0  0  0  0  0  0  0  0  0  0  0  0
   29.6566  108.0713    7.6930 C   0  0  0  0  0  0  0  0  0  0  0  0
   23.0626  101.2186   11.5374 O   0  0  0  0  0  0  0  0  0  0  0  0
   26.1281  103.1152   11.0534 C   0  0  0  0  0  0  0  0  0  0  0  0
   30.2804  107.4769    8.8184 C   0  0  0  0  0  0  0  0  0  0  0  0
   29.9754  106.1614    9.1061 O   0  0  0  0  0  0  0  0  0  0  0  0
   27.5165  102.9575   10.8602 C   0  0  0  0  0  0  0  0  0  0  0  0
   30.4024  103.3149   10.4477 O   0  0  0  0  0  0  0  0  0  0  0  0
   20.9875  103.1366   11.7491 C   0  0  0  0  0  0  0  0  0  0  0  0
   30.1388  105.6974   10.4411 C   0  0  0  0  0  0  0  0  0  0  0  0
   29.9342  109.4209    7.3511 C   0  0  0  0  0  0  0  0  0  0  0  0
   20.7592  105.8373   12.1969 C   0  0  0  0  0  0  0  0  0  0  0  0
   19.7035  103.6809   11.9513 C   0  0  0  0  0  0  0  0  0  0  0  0
   25.8515  100.6991   11.2064 C   0  0  0  0  0  0  0  0  0  0  0  0
   27.2379  100.5334   11.0308 C   0  0  0  0  0  0  0  0  0  0  0  0
   31.4535  109.5914    9.2478 C   0  0  0  0  0  0  0  0  0  0  0  0
   31.1815  108.2540    9.5906 C   0  0  0  0  0  0  0  0  0  0  0  0
   28.0704  101.6552   10.8602 C   0  0  0  0  0  0  0  0  0  0  0  0
   28.7514  107.3326    6.8963 C   0  0  0  0  0  0  0  0  0  0  0  0
   30.8321  110.1755    8.1306 C   0  0  0  0  0  0  0  0  0  0  0  0
   19.5848  105.0637   12.1831 C   0  0  0  0  0  0  0  0  0  0  0  0
   29.3128  110.0110    6.2308 C   0  0  0  0  0  0  0  0  0  0  0  0
   18.4760  102.7955   11.9079 C   0  0  0  0  0  0  0  0  0  0  0  0
   28.1338  107.9268    5.7789 C   0  0  0  0  0  0  0  0  0  0  0  0
   28.4140  109.2648    5.4460 C   0  0  0  0  0  0  0  0  0  0  0  0
  1  2  1  0
  1  4  1  0
  1  9  2  0
  2  3  1  0
  3  6  2  0
  3 15  1  0
  4 10  2  0
  4 20  1  0
  5  7  1  0
  5 14  2  0
  5 16  1  0
  6 18  1  0
  7 13  1  0
  8 11  2  0
  8 17  1  0
  8 25  1  0
 10 13  1  0
 11 12  1  0
 11 23  1  0
 12 16  1  0
 13 24  2  0
 15 19  2  0
 17 26  2  0
 17 28  1  0
 18 27  2  0
 19 27  1  0
 19 29  1  0
 20 21  2  0
 21 24  1  0
 22 23  2  0
 22 26  1  0
 25 30  2  0
 28 31  2  0
 30 31  1  0
M  END
>  <CHROM.0>  (2) 
-58.16491738,-71.36634562,-62.32438805,64.81948948,-54.65532171

>  <CHROM.1>  (2) 
-5.78894269,175.64968852,-82.88850240,178.98325605,-155.90274414,174.79165073
26.44778626,105.07397024,10.06179248,-2.51320338,0.15484254,-0.43634453

>  <Name>  (2) 
38b8a371683d61699d2fc30b320f0f47c89d62a80b9d3e8338ef233eee261a70

>  <RI>  (2) 
1.61658e+07

>  <Rbt.Current_Directory>  (2) 
/sysgen/workspace/users/bioinformatics/2111_DEHAAN_GASDERMIN/VS_SPECS

>  <Rbt.Executable>  (2) 
rbdock ($Id: //depot/dev/client3/rdock/2013.1/src/exe/rbdock.cxx#4 $)

>  <Rbt.Library>  (2) 
libRbt.so (2013.1, Build901 2013/11/27)

>  <Rbt.Parameter_File>  (2) 
/home/sruizcarmona/SOFT/GADI/rdock/rDock_2020.GADI/data/scripts/dock.prm

>  <Rbt.Receptor>  (2) 
gasd_rdock_free.prm

>  <SCORE>  (2) 
-34.8728

>  <SCORE.INTER>  (2) 
-24.8559

>  <SCORE.INTER.CONST>  (2) 
1

>  <SCORE.INTER.POLAR>  (2) 
-1.41649

>  <SCORE.INTER.REPUL>  (2) 
0

>  <SCORE.INTER.ROT>  (2) 
6

>  <SCORE.INTER.VDW>  (2) 
-31.4398

>  <SCORE.INTER.norm>  (2) 
-0.801803

>  <SCORE.INTRA>  (2) 
-2.54554

>  <SCORE.INTRA.DIHEDRAL>  (2) 
-7.17133

>  <SCORE.INTRA.DIHEDRAL.0>  (2) 
9.62718

>  <SCORE.INTRA.POLAR>  (2) 
0

>  <SCORE.INTRA.POLAR.0>  (2) 
0

>  <SCORE.INTRA.REPUL>  (2) 
0

>  <SCORE.INTRA.REPUL.0>  (2) 
0

>  <SCORE.INTRA.VDW>  (2) 
1.04013

>  <SCORE.INTRA.VDW.0>  (2) 
0.0227155

>  <SCORE.INTRA.norm>  (2) 
-0.0821141

>  <SCORE.RESTR>  (2) 
0

>  <SCORE.RESTR.CAVITY>  (2) 
0

>  <SCORE.RESTR.norm>  (2) 
0

>  <SCORE.SYSTEM>  (2) 
-7.47141

>  <SCORE.SYSTEM.CONST>  (2) 
0

>  <SCORE.SYSTEM.DIHEDRAL>  (2) 
0.923861

>  <SCORE.SYSTEM.POLAR>  (2) 
-2.19202

>  <SCORE.SYSTEM.REPUL>  (2) 
0.067749

>  <SCORE.SYSTEM.VDW>  (2) 
-0.819225

>  <SCORE.SYSTEM.norm>  (2) 
-0.241013

>  <SCORE.heavy>  (2) 
31

>  <SCORE.norm>  (2) 
-1.12493

$$$$
f59a5a01f7a29d4d5ecfc067207d01e6385a5eb78cafbfed672ab450d2de1d80
     RDKit          3D

 27 30  0  0  0  0  0  0  0  0999 V2000
   29.1751  105.4506   10.0264 C   0  0  0  0  0  0  0  0  0  0  0  0
   23.0908  102.6999   11.4304 C   0  0  0  0  0  0  0  0  0  0  0  0
   30.3784  106.0247   10.3068 N   0  0  0  0  0  0  0  0  0  0  0  0
   24.4883  103.2471   11.5375 C   0  0  0  0  0  0  0  0  0  0  0  0
   29.2511  107.4037    8.9287 C   0  0  0  0  0  0  0  0  0  0  0  0
   25.4502  102.4049   11.1131 N   0  0  0  0  0  0  0  0  0  0  0  0
   30.4604  107.2457    9.6382 C   0  0  0  0  0  0  0  0  0  0  0  0
   28.7027  104.1502   10.5424 C   0  0  0  0  0  0  0  0  0  0  0  0
   21.9595  103.5367   11.6318 C   0  0  0  0  0  0  0  0  0  0  0  0
   22.9056  101.3240   11.1589 C   0  0  0  0  0  0  0  0  0  0  0  0
   24.6878  104.3799   11.9758 O   0  0  0  0  0  0  0  0  0  0  0  0
   26.8569  102.6069   11.0801 C   0  0  0  0  0  0  0  0  0  0  0  0
   27.3217  103.8491   10.5990 C   0  0  0  0  0  0  0  0  0  0  0  0
   20.6623  102.9668   11.5460 C   0  0  0  0  0  0  0  0  0  0  0  0
   21.6140  100.7754   11.0763 C   0  0  0  0  0  0  0  0  0  0  0  0
   20.4921  101.5982   11.2694 C   0  0  0  0  0  0  0  0  0  0  0  0
   21.4083   99.0953   10.7424 Cl  0  0  0  0  0  0  0  0  0  0  0  0
   22.1719  104.8780   11.8863 O   0  0  0  0  0  0  0  0  0  0  0  0
   29.6183  103.1727   10.9942 C   0  0  0  0  0  0  0  0  0  0  0  0
   29.1681  101.9362   11.4923 C   0  0  0  0  0  0  0  0  0  0  0  0
   28.9973  108.5258    8.1462 C   0  0  0  0  0  0  0  0  0  0  0  0
   31.4693  108.2029    9.5964 C   0  0  0  0  0  0  0  0  0  0  0  0
   27.7920  101.6518   11.5412 C   0  0  0  0  0  0  0  0  0  0  0  0
   21.0753  105.6740   12.3115 C   0  0  0  0  0  0  0  0  0  0  0  0
   31.2230  109.3454    8.8058 C   0  0  0  0  0  0  0  0  0  0  0  0
   30.0137  109.5033    8.0964 C   0  0  0  0  0  0  0  0  0  0  0  0
   28.4791  106.2729    9.1926 N   0  0  0  0  0  0  0  0  0  0  0  0
  1  3  1  0
  1  8  1  0
  1 27  2  0
  2  4  1  0
  2  9  2  0
  2 10  1  0
  3  7  1  0
  4  6  1  0
  4 11  2  0
  5 21  1  0
  5  7  2  0
  5 27  1  0
  6 12  1  0
  7 22  1  0
  8 13  2  0
  8 19  1  0
  9 14  1  0
  9 18  1  0
 10 15  2  0
 12 13  1  0
 12 23  2  0
 14 16  2  0
 15 16  1  0
 15 17  1  0
 18 24  1  0
 19 20  2  0
 20 23  1  0
 21 26  2  0
 22 25  2  0
 25 26  1  0
M  CHG  1  27   1
M  END
>  <CHROM.0>  (1) 
-60.62615539,-71.76438901,-64.27542657,67.40163185,64.79583894

>  <CHROM.1>  (1) 
157.52587830,-169.75229831,-44.48490619,-169.43151374,25.92656854,104.07654152
10.64686344,-0.62082719,-0.12298050,2.98352515

>  <Name>  (1) 
f59a5a01f7a29d4d5ecfc067207d01e6385a5eb78cafbfed672ab450d2de1d80

>  <RI>  (1) 
2.08844e+07

>  <Rbt.Current_Directory>  (1) 
/sysgen/workspace/users/bioinformatics/2111_DEHAAN_GASDERMIN/VS_SPECS

>  <Rbt.Executable>  (1) 
rbdock ($Id: //depot/dev/client3/rdock/2013.1/src/exe/rbdock.cxx#4 $)

>  <Rbt.Library>  (1) 
libRbt.so (2013.1, Build901 2013/11/27)

>  <Rbt.Parameter_File>  (1) 
/home/sruizcarmona/SOFT/GADI/rdock/rDock_2020.GADI/data/scripts/dock.prm

>  <Rbt.Receptor>  (1) 
gasd_rdock_free.prm

>  <SCORE>  (1) 
-38.2162

>  <SCORE.INTER>  (1) 
-30.6767

>  <SCORE.INTER.CONST>  (1) 
1

>  <SCORE.INTER.POLAR>  (1) 
-4.89981

>  <SCORE.INTER.REPUL>  (1) 
0

>  <SCORE.INTER.ROT>  (1) 
4

>  <SCORE.INTER.VDW>  (1) 
-23.4173

>  <SCORE.INTER.norm>  (1) 
-1.13617

>  <SCORE.INTRA>  (1) 
1.65212

>  <SCORE.INTRA.DIHEDRAL>  (1) 
0.352337

>  <SCORE.INTRA.DIHEDRAL.0>  (1) 
8.1513

>  <SCORE.INTRA.POLAR>  (1) 
0

>  <SCORE.INTRA.POLAR.0>  (1) 
0

>  <SCORE.INTRA.REPUL>  (1) 
0

>  <SCORE.INTRA.REPUL.0>  (1) 
0

>  <SCORE.INTRA.VDW>  (1) 
1.47595

>  <SCORE.INTRA.VDW.0>  (1) 
0.668692

>  <SCORE.INTRA.norm>  (1) 
0.0611895

>  <SCORE.RESTR>  (1) 
0

>  <SCORE.RESTR.CAVITY>  (1) 
0

>  <SCORE.RESTR.norm>  (1) 
0

>  <SCORE.SYSTEM>  (1) 
-9.19159

>  <SCORE.SYSTEM.CONST>  (1) 
0

>  <SCORE.SYSTEM.DIHEDRAL>  (1) 
1.14081

>  <SCORE.SYSTEM.POLAR>  (1) 
-2.45208

>  <SCORE.SYSTEM.VDW>  (1) 
-1.42492

>  <SCORE.SYSTEM.norm>  (1) 
-0.340429

>  <SCORE.heavy>  (1) 
27

>  <SCORE.norm>  (1) 
-1.41541

$$$$
1738551545e89c7183c5408564612d479f63c16fe7598f16fdf45dba28f55a20
     RDKit          3D

 22 24  0  0  0  0  0  0  0  0999 V2000
   29.1369  105.9741    9.0538 C   0  0  0  0  0  0  0  0  0  0  0  0
   28.3449  106.8365    8.3931 N   0  0  0  0  0  0  0  0  0  0  0  0
   28.4005  105.1223    9.7883 N   0  0  0  0  0  0  0  0  0  0  0  0
   28.7091  107.9114    7.5290 C   0  0  0  0  0  0  0  0  0  0  0  0
   29.6968  108.8223    7.9887 C   0  0  0  0  0  0  0  0  0  0  0  0
   28.8354  104.0648   10.6360 C   0  0  0  0  0  0  0  0  0  0  0  0
   30.2808  108.6557    9.2028 N   0  0  0  0  0  0  0  0  0  0  0  0
   30.3668  105.9865    9.0193 O   0  0  0  0  0  0  0  0  0  0  0  0
   27.8496  103.4114   11.4147 C   0  0  0  0  0  0  0  0  0  0  0  0
   30.0610  109.9110    7.1454 C   0  0  0  0  0  0  0  0  0  0  0  0
   26.5493  103.8644   11.3056 O   0  0  0  0  0  0  0  0  0  0  0  0
   28.0893  108.1129    6.2710 C   0  0  0  0  0  0  0  0  0  0  0  0
   28.4637  109.1937    5.4543 C   0  0  0  0  0  0  0  0  0  0  0  0
   31.2209  109.5321    9.6125 C   0  0  0  0  0  0  0  0  0  0  0  0
   30.1812  103.6261   10.6891 C   0  0  0  0  0  0  0  0  0  0  0  0
   29.4526  110.0912    5.8882 C   0  0  0  0  0  0  0  0  0  0  0  0
   28.2360  102.3406   12.2611 C   0  0  0  0  0  0  0  0  0  0  0  0
   31.0452  110.8222    7.5810 C   0  0  0  0  0  0  0  0  0  0  0  0
   25.4988  102.9089   11.3121 C   0  0  0  0  0  0  0  0  0  0  0  0
   31.6389  110.6303    8.8406 C   0  0  0  0  0  0  0  0  0  0  0  0
   30.5498  102.5628   11.5325 C   0  0  0  0  0  0  0  0  0  0  0  0
   29.5782  101.9230   12.3207 C   0  0  0  0  0  0  0  0  0  0  0  0
  1  2  1  0
  1  3  1  0
  1  8  2  0
  2  4  1  0
  3  6  1  0
  4  5  1  0
  4 12  2  0
  5  7  2  0
  5 10  1  0
  6  9  2  0
  6 15  1  0
  7 14  1  0
  9 11  1  0
  9 17  1  0
 10 18  2  0
 10 16  1  0
 11 19  1  0
 12 13  1  0
 13 16  2  0
 14 20  2  0
 15 21  2  0
 17 22  2  0
 18 20  1  0
 21 22  1  0
M  END
>  <CHROM.0>  (1) 
-59.28831764,-70.75329685,-62.33079773,66.54048298,63.93920507

>  <CHROM.1>  (1) 
-49.02607197,173.12449753,141.25536409,29.13867328,106.40925228,9.27554831
1.81548622,0.43141186,2.48115482

>  <Name>  (1) 
1738551545e89c7183c5408564612d479f63c16fe7598f16fdf45dba28f55a20

>  <RI>  (1) 
3.40571e+07

>  <Rbt.Current_Directory>  (1) 
/sysgen/workspace/users/bioinformatics/2111_DEHAAN_GASDERMIN/VS_SPECS

>  <Rbt.Executable>  (1) 
rbdock ($Id: //depot/dev/client3/rdock/2013.1/src/exe/rbdock.cxx#4 $)

>  <Rbt.Library>  (1) 
libRbt.so (2013.1, Build901 2013/11/27)

>  <Rbt.Parameter_File>  (1) 
/home/sruizcarmona/SOFT/GADI/rdock/rDock_2020.GADI/data/scripts/dock.prm

>  <Rbt.Receptor>  (1) 
gasd_rdock_free.prm

>  <SCORE>  (1) 
-31.7328

>  <SCORE.INTER>  (1) 
-24.2699

>  <SCORE.INTER.CONST>  (1) 
1

>  <SCORE.INTER.POLAR>  (1) 
-2.80008

>  <SCORE.INTER.REPUL>  (1) 
0

>  <SCORE.INTER.ROT>  (1) 
3

>  <SCORE.INTER.VDW>  (1) 
-23.1496

>  <SCORE.INTER.norm>  (1) 
-1.10318

>  <SCORE.INTRA>  (1) 
1.72665

>  <SCORE.INTRA.DIHEDRAL>  (1) 
6.16219

>  <SCORE.INTRA.DIHEDRAL.0>  (1) 
3.61729

>  <SCORE.INTRA.POLAR>  (1) 
-0.0323045

>  <SCORE.INTRA.POLAR.0>  (1) 
-0.0610834

>  <SCORE.INTRA.REPUL>  (1) 
0

>  <SCORE.INTRA.REPUL.0>  (1) 
0

>  <SCORE.INTRA.VDW>  (1) 
-1.24461

>  <SCORE.INTRA.VDW.0>  (1) 
1.04039

>  <SCORE.INTRA.norm>  (1) 
0.078484

>  <SCORE.RESTR>  (1) 
0

>  <SCORE.RESTR.CAVITY>  (1) 
0

>  <SCORE.RESTR.norm>  (1) 
0

>  <SCORE.SYSTEM>  (1) 
-9.18952

>  <SCORE.SYSTEM.CONST>  (1) 
0

>  <SCORE.SYSTEM.DIHEDRAL>  (1) 
0.878111

>  <SCORE.SYSTEM.POLAR>  (1) 
-2.43052

>  <SCORE.SYSTEM.REPUL>  (1) 
0.00184846

>  <SCORE.SYSTEM.VDW>  (1) 
-1.37405

>  <SCORE.SYSTEM.norm>  (1) 
-0.417705

>  <SCORE.heavy>  (1) 
22

>  <SCORE.norm>  (1) 
-1.4424

$$$$
532801048fe51f31702492599d9d243cefc7f9aecfa56218afa92abd6ee2025b
     RDKit          3D

 24 26  0  0  0  0  0  0  0  0999 V2000
   22.4794  103.8225   11.8054 N   0  0  0  0  0  0  0  0  0  0  0  0
   23.7997  103.4451   11.4419 C   0  0  0  0  0  0  0  0  0  0  0  0
   29.1345  107.7417    7.5823 C   0  0  0  0  0  0  0  0  0  0  0  0
   24.8237  104.2747   11.7611 N   0  0  0  0  0  0  0  0  0  0  0  0
   22.1551  105.1126   12.0646 N   0  0  0  0  0  0  0  0  0  0  0  0
   29.3537  106.9216    8.8215 C   0  0  0  0  0  0  0  0  0  0  0  0
   26.0858  103.9687   11.4424 N   0  0  0  0  0  0  0  0  0  0  0  0
   26.3735  102.8200   10.7912 C   0  0  0  0  0  0  0  0  0  0  0  0
   21.3737  103.0029   11.9488 C   0  0  0  0  0  0  0  0  0  0  0  0
   20.3144  103.7858   12.3085 C   0  0  0  0  0  0  0  0  0  0  0  0
   29.7447  109.0129    7.4075 C   0  0  0  0  0  0  0  0  0  0  0  0
   24.0365  102.2282   10.7610 C   0  0  0  0  0  0  0  0  0  0  0  0
   30.1809  107.2496    9.6721 O   0  0  0  0  0  0  0  0  0  0  0  0
   20.8673  105.0937   12.3642 C   0  0  0  0  0  0  0  0  0  0  0  0
   28.5763  105.8321    8.9246 N   0  0  0  0  0  0  0  0  0  0  0  0
   27.7327  102.6177   10.5157 N   0  0  0  0  0  0  0  0  0  0  0  0
   25.3622  101.9043   10.4255 C   0  0  0  0  0  0  0  0  0  0  0  0
   30.9330  109.9241    8.8786 I   0  0  0  0  0  0  0  0  0  0  0  0
   28.3208  107.2223    6.5482 C   0  0  0  0  0  0  0  0  0  0  0  0
   29.5321  109.7335    6.2146 C   0  0  0  0  0  0  0  0  0  0  0  0
   28.5968  104.9021   10.0458 C   0  0  0  0  0  0  0  0  0  0  0  0
   28.4603  103.4463    9.5652 C   0  0  0  0  0  0  0  0  0  0  0  0
   28.1137  107.9496    5.3611 C   0  0  0  0  0  0  0  0  0  0  0  0
   28.7210  109.2064    5.1933 C   0  0  0  0  0  0  0  0  0  0  0  0
  1  2  1  0
  1  5  1  0
  1  9  1  0
  2  4  2  0
  2 12  1  0
  3  6  1  0
  3 11  2  0
  3 19  1  0
  4  7  1  0
  5 14  2  0
  6 15  1  0
  6 13  2  0
  7  8  2  0
  8 17  1  0
  8 16  1  0
  9 10  2  0
 10 14  1  0
 11 18  1  0
 11 20  1  0
 12 17  2  0
 15 21  1  0
 16 22  1  0
 19 23  2  0
 20 24  2  0
 21 22  1  0
 23 24  1  0
M  END
>  <CHROM.0>  (6) 
-55.32252358,-71.83618084,-60.71404310,-173.41395869,62.06832632

>  <CHROM.1>  (6) 
20.97555982,-7.88083420,-67.97604307,-140.20640075,66.48061740,-146.76638831
27.64681273,106.61225074,9.48041934,2.41609093,-0.25399686,2.89484818

>  <Name>  (6) 
532801048fe51f31702492599d9d243cefc7f9aecfa56218afa92abd6ee2025b

>  <RI>  (6) 
3.68383e+07

>  <Rbt.Current_Directory>  (6) 
/sysgen/workspace/users/bioinformatics/2111_DEHAAN_GASDERMIN/VS_SPECS

>  <Rbt.Executable>  (6) 
rbdock ($Id: //depot/dev/client3/rdock/2013.1/src/exe/rbdock.cxx#4 $)

>  <Rbt.Library>  (6) 
libRbt.so (2013.1, Build901 2013/11/27)

>  <Rbt.Parameter_File>  (6) 
/home/sruizcarmona/SOFT/GADI/rdock/rDock_2020.GADI/data/scripts/dock.prm

>  <Rbt.Receptor>  (6) 
gasd_rdock_free.prm

>  <SCORE>  (6) 
-33.8005

>  <SCORE.INTER>  (6) 
-32.5657

>  <SCORE.INTER.CONST>  (6) 
1

>  <SCORE.INTER.POLAR>  (6) 
-4.55954

>  <SCORE.INTER.REPUL>  (6) 
0.0396866

>  <SCORE.INTER.ROT>  (6) 
6

>  <SCORE.INTER.VDW>  (6) 
-28.6617

>  <SCORE.INTER.norm>  (6) 
-1.35691

>  <SCORE.INTRA>  (6) 
6.73948

>  <SCORE.INTRA.DIHEDRAL>  (6) 
9.01403

>  <SCORE.INTRA.DIHEDRAL.0>  (6) 
11.0516

>  <SCORE.INTRA.POLAR>  (6) 
0

>  <SCORE.INTRA.POLAR.0>  (6) 
0

>  <SCORE.INTRA.REPUL>  (6) 
0

>  <SCORE.INTRA.REPUL.0>  (6) 
0

>  <SCORE.INTRA.VDW>  (6) 
2.23246

>  <SCORE.INTRA.VDW.0>  (6) 
-1.52574

>  <SCORE.INTRA.norm>  (6) 
0.280812

>  <SCORE.RESTR>  (6) 
0

>  <SCORE.RESTR.CAVITY>  (6) 
0

>  <SCORE.RESTR.norm>  (6) 
0

>  <SCORE.SYSTEM>  (6) 
-7.97425

>  <SCORE.SYSTEM.CONST>  (6) 
0

>  <SCORE.SYSTEM.DIHEDRAL>  (6) 
1.01995

>  <SCORE.SYSTEM.POLAR>  (6) 
-2.19147

>  <SCORE.SYSTEM.REPUL>  (6) 
0.00727321

>  <SCORE.SYSTEM.VDW>  (6) 
-1.0696

>  <SCORE.SYSTEM.norm>  (6) 
-0.332261

>  <SCORE.heavy>  (6) 
24

>  <SCORE.norm>  (6) 
-1.40835

$$$$
92f8e418d86771053a0b627b879afb4d7f16411bc9f20b85fc11118a63c09309
     RDKit          3D

 25 27  0  0  0  0  0  0  0  0999 V2000
   24.9483  102.2319   10.8299 N   0  0  0  0  0  0  0  0  0  0  0  0
   24.2065  103.1719   11.4589 C   0  0  0  0  0  0  0  0  0  0  0  0
   24.9495  104.1626   11.9636 N   0  0  0  0  0  0  0  0  0  0  0  0
   26.1987  102.7207   10.9558 C   0  0  0  0  0  0  0  0  0  0  0  0
   26.2510  103.8709   11.6302 N   0  0  0  0  0  0  0  0  0  0  0  0
   22.7536  103.1488   11.5999 C   0  0  0  0  0  0  0  0  0  0  0  0
   27.6037  101.8850   10.2802 S   0  0  0  0  0  0  0  0  0  0  0  0
   28.9951  104.3016   10.1966 C   0  0  0  0  0  0  0  0  0  0  0  0
   30.0177  105.1046   10.5460 N   0  0  0  0  0  0  0  0  0  0  0  0
   22.0379  104.3376   11.8623 C   0  0  0  0  0  0  0  0  0  0  0  0
   28.1136  104.5962    9.3905 O   0  0  0  0  0  0  0  0  0  0  0  0
   28.9403  102.9496   10.9044 C   0  0  0  0  0  0  0  0  0  0  0  0
   24.5183  101.0021   10.1834 C   0  0  0  0  0  0  0  0  0  0  0  0
   30.3381  106.4028   10.0636 C   0  0  0  0  0  0  0  0  0  0  0  0
   20.6354  104.3079   11.9962 C   0  0  0  0  0  0  0  0  0  0  0  0
   19.9342  105.4848   12.2528 N   0  0  0  0  0  0  0  0  0  0  0  0
   30.8270  108.9933    9.0259 C   0  0  0  0  0  0  0  0  0  0  0  0
   29.5494  106.9126    9.0110 C   0  0  0  0  0  0  0  0  0  0  0  0
   31.3660  107.2105   10.6082 C   0  0  0  0  0  0  0  0  0  0  0  0
   29.7948  108.1977    8.4900 C   0  0  0  0  0  0  0  0  0  0  0  0
   31.6101  108.4959   10.0867 C   0  0  0  0  0  0  0  0  0  0  0  0
   22.0545  101.9284   11.4810 C   0  0  0  0  0  0  0  0  0  0  0  0
   20.6528  101.8982   11.6152 C   0  0  0  0  0  0  0  0  0  0  0  0
   19.9431  103.0871   11.8713 C   0  0  0  0  0  0  0  0  0  0  0  0
   31.0937  110.3748    8.4648 C   0  0  0  0  0  0  0  0  0  0  0  0
  1  2  1  0
  1  4  1  0
  1 13  1  0
  2  3  2  0
  2  6  1  0
  3  5  1  0
  4  5  2  0
  4  7  1  0
  6 10  2  0
  6 22  1  0
  7 12  1  0
  8 12  1  0
  8  9  1  0
  8 11  2  0
  9 14  1  0
 10 15  1  0
 14 18  2  0
 14 19  1  0
 15 16  1  0
 15 24  2  0
 17 20  2  0
 17 25  1  0
 17 21  1  0
 18 20  1  0
 19 21  2  0
 22 23  2  0
 23 24  1  0
M  END
>  <CHROM.0>  (3) 
-59.01243187,-71.27013262,-175.75687612,67.11624648,64.24905463

>  <CHROM.1>  (3) 
-158.88767891,-175.34067796,-72.00145228,-175.65945091,-4.74889183,26.36393571
104.52642799,10.64505124,-2.67091191,0.20712226,-0.06755060

>  <Name>  (3) 
92f8e418d86771053a0b627b879afb4d7f16411bc9f20b85fc11118a63c09309

>  <RI>  (3) 
2.50254e+07

>  <Rbt.Current_Directory>  (3) 
/sysgen/workspace/users/bioinformatics/2111_DEHAAN_GASDERMIN/VS_SPECS

>  <Rbt.Executable>  (3) 
rbdock ($Id: //depot/dev/client3/rdock/2013.1/src/exe/rbdock.cxx#4 $)

>  <Rbt.Library>  (3) 
libRbt.so (2013.1, Build901 2013/11/27)

>  <Rbt.Parameter_File>  (3) 
/home/sruizcarmona/SOFT/GADI/rdock/rDock_2020.GADI/data/scripts/dock.prm

>  <Rbt.Receptor>  (3) 
gasd_rdock_free.prm

>  <SCORE>  (3) 
-36.6917

>  <SCORE.INTER>  (3) 
-25.8554

>  <SCORE.INTER.CONST>  (3) 
1

>  <SCORE.INTER.POLAR>  (3) 
-2.86417

>  <SCORE.INTER.REPUL>  (3) 
0

>  <SCORE.INTER.ROT>  (3) 
5

>  <SCORE.INTER.VDW>  (3) 
-26.5173

>  <SCORE.INTER.norm>  (3) 
-1.03422

>  <SCORE.INTRA>  (3) 
-1.60414

>  <SCORE.INTRA.DIHEDRAL>  (3) 
-7.23319

>  <SCORE.INTRA.DIHEDRAL.0>  (3) 
10.5935

>  <SCORE.INTRA.POLAR>  (3) 
0

>  <SCORE.INTRA.POLAR.0>  (3) 
0

>  <SCORE.INTRA.REPUL>  (3) 
0

>  <SCORE.INTRA.REPUL.0>  (3) 
0

>  <SCORE.INTRA.VDW>  (3) 
2.01245

>  <SCORE.INTRA.VDW.0>  (3) 
-1.60282

>  <SCORE.INTRA.norm>  (3) 
-0.0641657

>  <SCORE.RESTR>  (3) 
0

>  <SCORE.RESTR.CAVITY>  (3) 
0

>  <SCORE.RESTR.norm>  (3) 
0

>  <SCORE.SYSTEM>  (3) 
-9.23208

>  <SCORE.SYSTEM.CONST>  (3) 
0

>  <SCORE.SYSTEM.DIHEDRAL>  (3) 
1.04551

>  <SCORE.SYSTEM.POLAR>  (3) 
-2.45437

>  <SCORE.SYSTEM.REPUL>  (3) 
0.00232003

>  <SCORE.SYSTEM.VDW>  (3) 
-1.42156

>  <SCORE.SYSTEM.norm>  (3) 
-0.369283

>  <SCORE.heavy>  (3) 
25

>  <SCORE.norm>  (3) 
-1.46767

$$$$
f2e43008cf34d63f75f8473ae598aa1a67f54b637d1bc960aa84e068154c3556
     RDKit          3D

 26 29  0  0  0  0  0  0  0  0999 V2000
   29.1507  105.3912   10.0085 C   0  0  0  0  0  0  0  0  0  0  0  0
   28.4684  106.2363    9.1861 N   0  0  0  0  0  0  0  0  0  0  0  0
   24.4395  103.2184   11.5387 C   0  0  0  0  0  0  0  0  0  0  0  0
   23.0351  102.6931   11.4123 C   0  0  0  0  0  0  0  0  0  0  0  0
   30.4535  107.1837    9.6691 C   0  0  0  0  0  0  0  0  0  0  0  0
   25.3898  102.3832   11.0758 N   0  0  0  0  0  0  0  0  0  0  0  0
   29.2516  107.3661    8.9528 C   0  0  0  0  0  0  0  0  0  0  0  0
   28.6636  104.0841   10.4928 C   0  0  0  0  0  0  0  0  0  0  0  0
   24.6554  104.3224   12.0384 O   0  0  0  0  0  0  0  0  0  0  0  0
   21.9151  103.5558   11.5600 C   0  0  0  0  0  0  0  0  0  0  0  0
   26.7987  102.5692   11.0454 C   0  0  0  0  0  0  0  0  0  0  0  0
   27.2782  103.8099   10.5752 C   0  0  0  0  0  0  0  0  0  0  0  0
   22.8319  101.3261   11.1084 C   0  0  0  0  0  0  0  0  0  0  0  0
   22.1448  104.8837   11.8657 O   0  0  0  0  0  0  0  0  0  0  0  0
   29.5690  103.0723   10.8856 C   0  0  0  0  0  0  0  0  0  0  0  0
   29.1051  101.8242   11.3404 C   0  0  0  0  0  0  0  0  0  0  0  0
   31.4702  108.1334    9.6561 C   0  0  0  0  0  0  0  0  0  0  0  0
   29.0136  108.5064    8.1919 C   0  0  0  0  0  0  0  0  0  0  0  0
   27.7250  101.5676   11.4173 C   0  0  0  0  0  0  0  0  0  0  0  0
   20.6109  103.0172   11.4059 C   0  0  0  0  0  0  0  0  0  0  0  0
   21.0578  105.6775   12.3187 C   0  0  0  0  0  0  0  0  0  0  0  0
   21.5334  100.8083   10.9601 C   0  0  0  0  0  0  0  0  0  0  0  0
   30.0380  109.4766    8.1713 C   0  0  0  0  0  0  0  0  0  0  0  0
   31.2397  109.2942    8.8875 C   0  0  0  0  0  0  0  0  0  0  0  0
   20.4230  101.6550   11.1095 C   0  0  0  0  0  0  0  0  0  0  0  0
   30.3559  105.9498   10.3111 N   0  0  0  0  0  0  0  0  0  0  0  0
  1  2  1  0
  1  8  1  0
  1 26  2  0
  2  7  1  0
  3  6  1  0
  3  4  1  0
  3  9  2  0
  4 10  2  0
  4 13  1  0
  5 17  1  0
  5  7  2  0
  5 26  1  0
  6 11  1  0
  7 18  1  0
  8 12  2  0
  8 15  1  0
 10 14  1  0
 10 20  1  0
 11 12  1  0
 11 19  2  0
 13 22  2  0
 14 21  1  0
 15 16  2  0
 16 19  1  0
 17 24  2  0
 18 23  2  0
 20 25  2  0
 22 25  1  0
 23 24  1  0
M  CHG  1  26   1
M  END
>  <CHROM.0>  (2) 
-57.75587961,-70.93276919,-61.86740543,68.04361514,178.47302966

>  <CHROM.1>  (2) 
-24.67756427,-165.27815248,-46.40031404,-165.51639173,26.34509138,104.54847104
10.61038035,-0.54572914,-0.12440215,2.90023658

>  <Name>  (2) 
f2e43008cf34d63f75f8473ae598aa1a67f54b637d1bc960aa84e068154c3556

>  <RI>  (2) 
2.08844e+07

>  <Rbt.Current_Directory>  (2) 
/sysgen/workspace/users/bioinformatics/2111_DEHAAN_GASDERMIN/VS_SPECS

>  <Rbt.Executable>  (2) 
rbdock ($Id: //depot/dev/client3/rdock/2013.1/src/exe/rbdock.cxx#4 $)

>  <Rbt.Library>  (2) 
libRbt.so (2013.1, Build901 2013/11/27)

>  <Rbt.Parameter_File>  (2) 
/home/sruizcarmona/SOFT/GADI/rdock/rDock_2020.GADI/data/scripts/dock.prm

>  <Rbt.Receptor>  (2) 
gasd_rdock_free.prm

>  <SCORE>  (2) 
-36.6043

>  <SCORE.INTER>  (2) 
-30.9401

>  <SCORE.INTER.CONST>  (2) 
1

>  <SCORE.INTER.POLAR>  (2) 
-5.05108

>  <SCORE.INTER.REPUL>  (2) 
0

>  <SCORE.INTER.ROT>  (2) 
4

>  <SCORE.INTER.VDW>  (2) 
-23.1664

>  <SCORE.INTER.norm>  (2) 
-1.19

>  <SCORE.INTRA>  (2) 
2.20099

>  <SCORE.INTRA.DIHEDRAL>  (2) 
2.12809

>  <SCORE.INTRA.DIHEDRAL.0>  (2) 
8.14273

>  <SCORE.INTRA.POLAR>  (2) 
0

>  <SCORE.INTRA.POLAR.0>  (2) 
0

>  <SCORE.INTRA.REPUL>  (2) 
0

>  <SCORE.INTRA.REPUL.0>  (2) 
0

>  <SCORE.INTRA.VDW>  (2) 
1.13695

>  <SCORE.INTRA.VDW.0>  (2) 
0.648685

>  <SCORE.INTRA.norm>  (2) 
0.0846534

>  <SCORE.RESTR>  (2) 
0

>  <SCORE.RESTR.CAVITY>  (2) 
0

>  <SCORE.RESTR.norm>  (2) 
0

>  <SCORE.SYSTEM>  (2) 
-7.86516

>  <SCORE.SYSTEM.CONST>  (2) 
0

>  <SCORE.SYSTEM.DIHEDRAL>  (2) 
0.949739

>  <SCORE.SYSTEM.POLAR>  (2) 
-2.19453

>  <SCORE.SYSTEM.REPUL>  (2) 
0.00429907

>  <SCORE.SYSTEM.VDW>  (2) 
-0.900134

>  <SCORE.SYSTEM.norm>  (2) 
-0.302506

>  <SCORE.heavy>  (2) 
26

>  <SCORE.norm>  (2) 
-1.40786

$$$$
8ae1824d1dc1d2cbcbbcc8f51ca5a98b23d56b9a6eb257f3835c07ef1b60815f
     RDKit          3D

 30 33  0  0  0  0  0  0  0  0999 V2000
   24.8796  102.3178   10.7897 N   0  0  0  0  0  0  0  0  0  0  0  0
   24.1255  103.2093   11.4615 C   0  0  0  0  0  0  0  0  0  0  0  0
   24.8945  104.1903   11.9551 N   0  0  0  0  0  0  0  0  0  0  0  0
   26.1398  102.7729   10.8748 C   0  0  0  0  0  0  0  0  0  0  0  0
   26.1996  103.9115   11.5675 N   0  0  0  0  0  0  0  0  0  0  0  0
   27.5415  101.9612   10.1832 S   0  0  0  0  0  0  0  0  0  0  0  0
   24.4475  101.1282   10.1611 C   0  0  0  0  0  0  0  0  0  0  0  0
   28.9841  104.3466   10.1123 C   0  0  0  0  0  0  0  0  0  0  0  0
   22.6782  103.1596   11.6582 C   0  0  0  0  0  0  0  0  0  0  0  0
   29.9649  105.1633   10.5406 N   0  0  0  0  0  0  0  0  0  0  0  0
   19.8784  103.0922   12.0521 N   0  0  0  0  0  0  0  0  0  0  0  0
   28.2578  104.5671    9.1441 O   0  0  0  0  0  0  0  0  0  0  0  0
   28.8177  103.0427   10.8888 C   0  0  0  0  0  0  0  0  0  0  0  0
   30.3541  106.4328   10.0332 C   0  0  0  0  0  0  0  0  0  0  0  0
   31.0644  108.9300    8.8685 C   0  0  0  0  0  0  0  0  0  0  0  0
   29.7755  106.8475    8.8169 C   0  0  0  0  0  0  0  0  0  0  0  0
   31.3105  107.2683   10.6573 C   0  0  0  0  0  0  0  0  0  0  0  0
   30.1244  108.0856    8.2451 C   0  0  0  0  0  0  0  0  0  0  0  0
   31.6587  108.5065   10.0831 C   0  0  0  0  0  0  0  0  0  0  0  0
   31.3478  110.1241    8.2410 O   0  0  0  0  0  0  0  0  0  0  0  0
   20.5434  104.2643   11.9781 C   0  0  0  0  0  0  0  0  0  0  0  0
   20.5918  101.9533   11.9283 C   0  0  0  0  0  0  0  0  0  0  0  0
   25.1434   99.9211   10.3849 C   0  0  0  0  0  0  0  0  0  0  0  0
   23.3197  101.1436    9.3131 C   0  0  0  0  0  0  0  0  0  0  0  0
   21.9860  101.9313   11.7296 C   0  0  0  0  0  0  0  0  0  0  0  0
   21.9356  104.3528   11.7828 C   0  0  0  0  0  0  0  0  0  0  0  0
   30.2664  110.9943    7.9405 C   0  0  0  0  0  0  0  0  0  0  0  0
   24.7132   98.7346    9.7603 C   0  0  0  0  0  0  0  0  0  0  0  0
   22.8920   99.9556    8.6893 C   0  0  0  0  0  0  0  0  0  0  0  0
   23.5884   98.7519    8.9128 C   0  0  0  0  0  0  0  0  0  0  0  0
  1  2  1  0
  1  4  1  0
  1  7  1  0
  2  3  2  0
  2  9  1  0
  3  5  1  0
  4  5  2  0
  4  6  1  0
  6 13  1  0
  7 23  2  0
  7 24  1  0
  8 13  1  0
  8 10  1  0
  8 12  2  0
  9 25  1  0
  9 26  2  0
 10 14  1  0
 11 21  2  0
 11 22  1  0
 14 16  2  0
 14 17  1  0
 15 18  2  0
 15 20  1  0
 15 19  1  0
 16 18  1  0
 17 19  2  0
 20 27  1  0
 21 26  1  0
 22 25  2  0
 23 28  1  0
 24 29  2  0
 28 30  2  0
 29 30  1  0
M  END
>  <CHROM.0>  (4) 
-57.94324043,-70.93593706,-172.51575578,-174.59783336,179.08920045

>  <CHROM.1>  (4) 
-131.92916276,30.45918961,-173.22642506,-80.01264297,-176.57275557,-9.18468232
55.19977823,26.37059106,104.01335117,10.26668279,-2.48099987,0.27400672,0.08696673

>  <Name>  (4) 
8ae1824d1dc1d2cbcbbcc8f51ca5a98b23d56b9a6eb257f3835c07ef1b60815f

>  <RI>  (4) 
9.30499e+06

>  <Rbt.Current_Directory>  (4) 
/sysgen/workspace/users/bioinformatics/2111_DEHAAN_GASDERMIN/VS_SPECS

>  <Rbt.Executable>  (4) 
rbdock ($Id: //depot/dev/client3/rdock/2013.1/src/exe/rbdock.cxx#4 $)

>  <Rbt.Library>  (4) 
libRbt.so (2013.1, Build901 2013/11/27)

>  <Rbt.Parameter_File>  (4) 
/home/sruizcarmona/SOFT/GADI/rdock/rDock_2020.GADI/data/scripts/dock.prm

>  <Rbt.Receptor>  (4) 
gasd_rdock_free.prm

>  <SCORE>  (4) 
-33.5226

>  <SCORE.INTER>  (4) 
-24.9462

>  <SCORE.INTER.CONST>  (4) 
1

>  <SCORE.INTER.POLAR>  (4) 
-2.87664

>  <SCORE.INTER.REPUL>  (4) 
0

>  <SCORE.INTER.ROT>  (4) 
7

>  <SCORE.INTER.VDW>  (4) 
-27.5656

>  <SCORE.INTER.norm>  (4) 
-0.83154

>  <SCORE.INTRA>  (4) 
-1.83073

>  <SCORE.INTRA.DIHEDRAL>  (4) 
-8.20913

>  <SCORE.INTRA.DIHEDRAL.0>  (4) 
23.9442

>  <SCORE.INTRA.POLAR>  (4) 
0

>  <SCORE.INTRA.POLAR.0>  (4) 
0

>  <SCORE.INTRA.REPUL>  (4) 
0

>  <SCORE.INTRA.REPUL.0>  (4) 
0

>  <SCORE.INTRA.VDW>  (4) 
2.27384

>  <SCORE.INTRA.VDW.0>  (4) 
-2.33545

>  <SCORE.INTRA.norm>  (4) 
-0.0610242

>  <SCORE.RESTR>  (4) 
0

>  <SCORE.RESTR.CAVITY>  (4) 
0

>  <SCORE.RESTR.norm>  (4) 
0

>  <SCORE.SYSTEM>  (4) 
-6.74564

>  <SCORE.SYSTEM.CONST>  (4) 
0

>  <SCORE.SYSTEM.DIHEDRAL>  (4) 
1.02286

>  <SCORE.SYSTEM.POLAR>  (4) 
-1.87549

>  <SCORE.SYSTEM.REPUL>  (4) 
0.00402213

>  <SCORE.SYSTEM.VDW>  (4) 
-0.900509

>  <SCORE.SYSTEM.norm>  (4) 
-0.224855

>  <SCORE.heavy>  (4) 
30

>  <SCORE.norm>  (4) 
-1.11742

$$$$
e66b02a0fddd0bc19a04ab7e809ac53314e966f78efafe1f8e69d0a05980b4d1
     RDKit          3D

 28 32  0  0  0  0  0  0  0  0999 V2000
   28.8789  103.7418   10.3409 S   0  0  0  0  0  0  0  0  0  0  0  0
   21.0390  104.9393   12.1682 C   0  0  0  0  0  0  0  0  0  0  0  0
   22.3159  104.8078   11.9469 N   0  0  0  0  0  0  0  0  0  0  0  0
   20.3625  103.7464   12.3052 N   0  0  0  0  0  0  0  0  0  0  0  0
   22.5135  103.4220   11.9339 C   0  0  0  0  0  0  0  0  0  0  0  0
   21.3250  102.7627   12.1523 C   0  0  0  0  0  0  0  0  0  0  0  0
   27.2869  104.0675   10.9526 N   0  0  0  0  0  0  0  0  0  0  0  0
   29.4962  105.3634    9.9050 C   0  0  0  0  0  0  0  0  0  0  0  0
   19.8164  106.1917   12.3625 S   0  0  0  0  0  0  0  0  0  0  0  0
   23.8516  102.8528   11.7088 C   0  0  0  0  0  0  0  0  0  0  0  0
   29.6452  103.2344   11.4893 O   0  0  0  0  0  0  0  0  0  0  0  0
   28.6989  102.9286    9.1280 O   0  0  0  0  0  0  0  0  0  0  0  0
   28.7714  106.1460    8.9851 C   0  0  0  0  0  0  0  0  0  0  0  0
   19.0209  103.7943   12.5391 C   0  0  0  0  0  0  0  0  0  0  0  0
   18.5021  105.0584   12.6100 C   0  0  0  0  0  0  0  0  0  0  0  0
   29.2513  107.4213    8.6234 C   0  0  0  0  0  0  0  0  0  0  0  0
   26.2388  103.1791   11.2179 C   0  0  0  0  0  0  0  0  0  0  0  0
   24.9486  103.7030   11.4397 C   0  0  0  0  0  0  0  0  0  0  0  0
   30.6944  105.8427   10.4712 C   0  0  0  0  0  0  0  0  0  0  0  0
   30.4579  107.9085    9.1884 C   0  0  0  0  0  0  0  0  0  0  0  0
   31.1743  107.1167   10.1107 C   0  0  0  0  0  0  0  0  0  0  0  0
   24.0703  101.4564   11.7561 C   0  0  0  0  0  0  0  0  0  0  0  0
   25.3562  100.9262   11.5419 C   0  0  0  0  0  0  0  0  0  0  0  0
   26.4388  101.7836   11.2753 C   0  0  0  0  0  0  0  0  0  0  0  0
   28.5372  108.2145    7.7017 C   0  0  0  0  0  0  0  0  0  0  0  0
   30.9366  109.1842    8.8249 C   0  0  0  0  0  0  0  0  0  0  0  0
   29.0210  109.4877    7.3430 C   0  0  0  0  0  0  0  0  0  0  0  0
   30.2188  109.9719    7.9039 C   0  0  0  0  0  0  0  0  0  0  0  0
  1  7  1  0
  1  8  1  0
  1 11  2  0
  1 12  2  0
  2  3  2  0
  2  9  1  0
  2  4  1  0
  3  5  1  0
  4  6  1  0
  4 14  1  0
  5 10  1  0
  5  6  2  0
  7 17  1  0
  8 13  2  0
  8 19  1  0
  9 15  1  0
 10 18  2  0
 10 22  1  0
 13 16  1  0
 14 15  2  0
 16 25  2  0
 16 20  1  0
 17 18  1  0
 17 24  2  0
 19 21  2  0
 20 21  1  0
 20 26  2  0
 22 23  2  0
 23 24  1  0
 25 27  1  0
 26 28  1  0
 27 28  2  0
M  END
>  <CHROM.0>  (2) 
-57.32802810,-71.48984995,62.16042293,67.14588675,178.99156727

>  <CHROM.1>  (2) 
167.07038594,-57.36761303,-2.95923366,-166.62329547,25.90024843,104.93877962
10.71040072,-0.35879871,-0.23323291,2.84684533

>  <Name>  (2) 
e66b02a0fddd0bc19a04ab7e809ac53314e966f78efafe1f8e69d0a05980b4d1

>  <RI>  (2) 
2.33666e+07

>  <Rbt.Current_Directory>  (2) 
/sysgen/workspace/users/bioinformatics/2111_DEHAAN_GASDERMIN/VS_SPECS

>  <Rbt.Executable>  (2) 
rbdock ($Id: //depot/dev/client3/rdock/2013.1/src/exe/rbdock.cxx#4 $)

>  <Rbt.Library>  (2) 
libRbt.so (2013.1, Build901 2013/11/27)

>  <Rbt.Parameter_File>  (2) 
/home/sruizcarmona/SOFT/GADI/rdock/rDock_2020.GADI/data/scripts/dock.prm

>  <Rbt.Receptor>  (2) 
gasd_rdock_free.prm

>  <SCORE>  (2) 
-33.4855

>  <SCORE.INTER>  (2) 
-26.1047

>  <SCORE.INTER.CONST>  (2) 
1

>  <SCORE.INTER.POLAR>  (2) 
-1.36326

>  <SCORE.INTER.REPUL>  (2) 
0

>  <SCORE.INTER.ROT>  (2) 
4

>  <SCORE.INTER.VDW>  (2) 
-30.8696

>  <SCORE.INTER.norm>  (2) 
-0.932311

>  <SCORE.INTRA>  (2) 
0.476466

>  <SCORE.INTRA.DIHEDRAL>  (2) 
0.100447

>  <SCORE.INTRA.DIHEDRAL.0>  (2) 
2.84308

>  <SCORE.INTRA.POLAR>  (2) 
0

>  <SCORE.INTRA.POLAR.0>  (2) 
0

>  <SCORE.INTRA.REPUL>  (2) 
0

>  <SCORE.INTRA.REPUL.0>  (2) 
0

>  <SCORE.INTRA.VDW>  (2) 
0.426242

>  <SCORE.INTRA.VDW.0>  (2) 
-2.32526

>  <SCORE.INTRA.norm>  (2) 
0.0170166

>  <SCORE.RESTR>  (2) 
0

>  <SCORE.RESTR.CAVITY>  (2) 
0

>  <SCORE.RESTR.norm>  (2) 
0

>  <SCORE.SYSTEM>  (2) 
-7.85724

>  <SCORE.SYSTEM.CONST>  (2) 
0

>  <SCORE.SYSTEM.DIHEDRAL>  (2) 
0.951906

>  <SCORE.SYSTEM.POLAR>  (2) 
-2.21576

>  <SCORE.SYSTEM.REPUL>  (2) 
0.00490673

>  <SCORE.SYSTEM.VDW>  (2) 
-0.824163

>  <SCORE.SYSTEM.norm>  (2) 
-0.280616

>  <SCORE.heavy>  (2) 
28

>  <SCORE.norm>  (2) 
-1.19591

$$$$
a180130972ef81abee0885bfe3d291cddb865015e4730a69a6a66f51604b0a2a
     RDKit          3D

 20 22  0  0  0  0  0  0  0  0999 V2000
   26.0314  103.9875   11.4479 N   0  0  0  0  0  0  0  0  0  0  0  0
   29.2084  105.9463    8.9994 C   0  0  0  0  0  0  0  0  0  0  0  0
   30.4477  106.4882    9.1780 N   0  0  0  0  0  0  0  0  0  0  0  0
   27.0029  103.2717   10.8808 C   0  0  0  0  0  0  0  0  0  0  0  0
   24.7982  103.4394   11.4576 C   0  0  0  0  0  0  0  0  0  0  0  0
   24.5522  102.1704   10.8949 C   0  0  0  0  0  0  0  0  0  0  0  0
   30.4167  107.8677    8.9605 C   0  0  0  0  0  0  0  0  0  0  0  0
   26.8918  102.0659   10.3184 N   0  0  0  0  0  0  0  0  0  0  0  0
   29.0812  108.1741    8.6315 C   0  0  0  0  0  0  0  0  0  0  0  0
   25.6613  101.5107   10.3258 C   0  0  0  0  0  0  0  0  0  0  0  0
   28.6146  104.0390   10.8919 S   0  0  0  0  0  0  0  0  0  0  0  0
   28.8498  104.4995    9.1447 C   0  0  0  0  0  0  0  0  0  0  0  0
   23.7749  104.1370   12.0263 O   0  0  0  0  0  0  0  0  0  0  0  0
   31.7241  105.8667    9.5423 C   0  0  0  0  0  0  0  0  0  0  0  0
   31.4023  108.8512    9.0182 C   0  0  0  0  0  0  0  0  0  0  0  0
   28.6697  109.4725    8.3460 C   0  0  0  0  0  0  0  0  0  0  0  0
   25.5273  100.1453    9.6866 C   0  0  0  0  0  0  0  0  0  0  0  0
   30.9975  110.1719    8.7308 C   0  0  0  0  0  0  0  0  0  0  0  0
   29.6599  110.4761    8.4017 C   0  0  0  0  0  0  0  0  0  0  0  0
   28.3721  106.9727    8.6654 N   0  0  0  0  0  0  0  0  0  0  0  0
  1  4  2  0
  1  5  1  0
  2 12  1  0
  2  3  1  0
  2 20  2  0
  3  7  1  0
  3 14  1  0
  4 11  1  0
  4  8  1  0
  5 13  1  0
  5  6  2  0
  6 10  1  0
  7 15  2  0
  7  9  1  0
  8 10  2  0
  9 16  2  0
  9 20  1  0
 10 17  1  0
 11 12  1  0
 15 18  1  0
 16 19  1  0
 18 19  2  0
M  CHG  1  20   1
M  END
>  <CHROM.0>  (1) 
-59.92821273,-71.30373911,-177.40449360,67.63030926,63.97250009

>  <CHROM.1>  (1) 
80.46345047,-108.01132247,-179.60747550,127.33427910,28.07062777,105.32989012
9.87295732,2.21931418,-0.25112681,3.00825837

>  <Name>  (1) 
a180130972ef81abee0885bfe3d291cddb865015e4730a69a6a66f51604b0a2a

>  <RI>  (1) 
2.75322e+07

>  <Rbt.Current_Directory>  (1) 
/sysgen/workspace/users/bioinformatics/2111_DEHAAN_GASDERMIN/VS_SPECS

>  <Rbt.Executable>  (1) 
rbdock ($Id: //depot/dev/client3/rdock/2013.1/src/exe/rbdock.cxx#4 $)

>  <Rbt.Library>  (1) 
libRbt.so (2013.1, Build901 2013/11/27)

>  <Rbt.Parameter_File>  (1) 
/home/sruizcarmona/SOFT/GADI/rdock/rDock_2020.GADI/data/scripts/dock.prm

>  <Rbt.Receptor>  (1) 
gasd_rdock_free.prm

>  <SCORE>  (1) 
-34.9709

>  <SCORE.INTER>  (1) 
-26.139

>  <SCORE.INTER.CONST>  (1) 
1

>  <SCORE.INTER.POLAR>  (1) 
-3.52335

>  <SCORE.INTER.REPUL>  (1) 
0

>  <SCORE.INTER.ROT>  (1) 
3

>  <SCORE.INTER.VDW>  (1) 
-22.5597

>  <SCORE.INTER.norm>  (1) 
-1.30695

>  <SCORE.INTRA>  (1) 
0.413515

>  <SCORE.INTRA.DIHEDRAL>  (1) 
2.31314

>  <SCORE.INTRA.DIHEDRAL.0>  (1) 
3.33597

>  <SCORE.INTRA.POLAR>  (1) 
0

>  <SCORE.INTRA.POLAR.0>  (1) 
0

>  <SCORE.INTRA.REPUL>  (1) 
0

>  <SCORE.INTRA.REPUL.0>  (1) 
0

>  <SCORE.INTRA.VDW>  (1) 
-0.743054

>  <SCORE.INTRA.VDW.0>  (1) 
-0.114839

>  <SCORE.INTRA.norm>  (1) 
0.0206757

>  <SCORE.RESTR>  (1) 
0

>  <SCORE.RESTR.CAVITY>  (1) 
0

>  <SCORE.RESTR.norm>  (1) 
0

>  <SCORE.SYSTEM>  (1) 
-9.24533

>  <SCORE.SYSTEM.CONST>  (1) 
0

>  <SCORE.SYSTEM.DIHEDRAL>  (1) 
1.0143

>  <SCORE.SYSTEM.POLAR>  (1) 
-2.44857

>  <SCORE.SYSTEM.REPUL>  (1) 
0.000706236

>  <SCORE.SYSTEM.VDW>  (1) 
-1.43087

>  <SCORE.SYSTEM.norm>  (1) 
-0.462266

>  <SCORE.heavy>  (1) 
20

>  <SCORE.norm>  (1) 
-1.74854

$$$$
b0f20ee74a21cf451f08da3e31308015fd4a08634cb0f99360762bfb7e7947ef
     RDKit          3D

 22 25  0  0  0  0  0  0  0  0999 V2000
   25.9023  103.9684   11.5842 N   0  0  0  0  0  0  0  0  0  0  0  0
   24.6005  103.4496   11.5261 C   0  0  0  0  0  0  0  0  0  0  0  0
   26.8777  103.3217   11.0117 C   0  0  0  0  0  0  0  0  0  0  0  0
   24.3681  102.1427   10.7929 C   0  0  0  0  0  0  0  0  0  0  0  0
   26.7102  102.1241   10.3312 N   0  0  0  0  0  0  0  0  0  0  0  0
   29.2530  105.6902    9.1196 C   0  0  0  0  0  0  0  0  0  0  0  0
   28.4583  106.7377    8.7584 N   0  0  0  0  0  0  0  0  0  0  0  0
   25.4732  101.4987   10.1970 C   0  0  0  0  0  0  0  0  0  0  0  0
   30.5126  107.5563    9.1518 C   0  0  0  0  0  0  0  0  0  0  0  0
   29.2060  107.9135    8.7673 C   0  0  0  0  0  0  0  0  0  0  0  0
   28.6231  103.8226   10.9739 S   0  0  0  0  0  0  0  0  0  0  0  0
   23.6393  104.0140   12.0470 O   0  0  0  0  0  0  0  0  0  0  0  0
   28.8311  104.2641    9.2264 C   0  0  0  0  0  0  0  0  0  0  0  0
   23.0870  101.5562   10.6903 C   0  0  0  0  0  0  0  0  0  0  0  0
   25.3155  100.2831    9.5038 C   0  0  0  0  0  0  0  0  0  0  0  0
   31.5315  108.4970    9.2646 C   0  0  0  0  0  0  0  0  0  0  0  0
   28.8560  109.2285    8.4771 C   0  0  0  0  0  0  0  0  0  0  0  0
   22.9244  100.3392    9.9974 C   0  0  0  0  0  0  0  0  0  0  0  0
   24.0352   99.7041    9.4056 C   0  0  0  0  0  0  0  0  0  0  0  0
   29.8804  110.1927    8.5879 C   0  0  0  0  0  0  0  0  0  0  0  0
   31.1896  109.8347    8.9732 C   0  0  0  0  0  0  0  0  0  0  0  0
   30.5033  106.1785    9.3602 N   0  0  0  0  0  0  0  0  0  0  0  0
  1  2  1  0
  1  3  2  0
  2  4  1  0
  2 12  2  0
  3  5  1  0
  3 11  1  0
  4 14  2  0
  4  8  1  0
  5  8  1  0
  6 13  1  0
  6  7  1  0
  6 22  2  0
  7 10  1  0
  8 15  2  0
  9 16  1  0
  9 10  2  0
  9 22  1  0
 10 17  1  0
 11 13  1  0
 14 18  1  0
 15 19  1  0
 16 21  2  0
 17 20  2  0
 18 19  2  0
 20 21  1  0
M  CHG  1  22   1
M  END
>  <CHROM.0>  (2) 
-59.91980247,-72.22702804,179.96903959,66.94734531,62.65550708

>  <CHROM.1>  (2) 
-110.09398012,-103.55296223,120.66753741,27.34098613,104.59679634,9.97432279
2.29047972,-0.25037122,3.13433550

>  <Name>  (2) 
b0f20ee74a21cf451f08da3e31308015fd4a08634cb0f99360762bfb7e7947ef

>  <RI>  (2) 
2.58037e+07

>  <Rbt.Current_Directory>  (2) 
/sysgen/workspace/users/bioinformatics/2111_DEHAAN_GASDERMIN/VS_SPECS

>  <Rbt.Executable>  (2) 
rbdock ($Id: //depot/dev/client3/rdock/2013.1/src/exe/rbdock.cxx#4 $)

>  <Rbt.Library>  (2) 
libRbt.so (2013.1, Build901 2013/11/27)

>  <Rbt.Parameter_File>  (2) 
/home/sruizcarmona/SOFT/GADI/rdock/rDock_2020.GADI/data/scripts/dock.prm

>  <Rbt.Receptor>  (2) 
gasd_rdock_free.prm

>  <SCORE>  (2) 
-33.6771

>  <SCORE.INTER>  (2) 
-25.334

>  <SCORE.INTER.CONST>  (2) 
1

>  <SCORE.INTER.POLAR>  (2) 
-3.52455

>  <SCORE.INTER.REPUL>  (2) 
0

>  <SCORE.INTER.ROT>  (2) 
3

>  <SCORE.INTER.VDW>  (2) 
-21.7505

>  <SCORE.INTER.norm>  (2) 
-1.15154

>  <SCORE.INTRA>  (2) 
0.899733

>  <SCORE.INTRA.DIHEDRAL>  (2) 
2.4109

>  <SCORE.INTRA.DIHEDRAL.0>  (2) 
3.32942

>  <SCORE.INTRA.POLAR>  (2) 
0

>  <SCORE.INTRA.POLAR.0>  (2) 
0

>  <SCORE.INTRA.REPUL>  (2) 
0

>  <SCORE.INTRA.REPUL.0>  (2) 
0

>  <SCORE.INTRA.VDW>  (2) 
-0.305716

>  <SCORE.INTRA.VDW.0>  (2) 
-0.770711

>  <SCORE.INTRA.norm>  (2) 
0.040897

>  <SCORE.RESTR>  (2) 
0

>  <SCORE.RESTR.CAVITY>  (2) 
0

>  <SCORE.RESTR.norm>  (2) 
0

>  <SCORE.SYSTEM>  (2) 
-9.24288

>  <SCORE.SYSTEM.CONST>  (2) 
0

>  <SCORE.SYSTEM.DIHEDRAL>  (2) 
0.990617

>  <SCORE.SYSTEM.POLAR>  (2) 
-2.46812

>  <SCORE.SYSTEM.REPUL>  (2) 
0.000721676

>  <SCORE.SYSTEM.VDW>  (2) 
-1.3502

>  <SCORE.SYSTEM.norm>  (2) 
-0.420131

>  <SCORE.heavy>  (2) 
22

>  <SCORE.norm>  (2) 
-1.53078

$$$$
f59a5a01f7a29d4d5ecfc067207d01e6385a5eb78cafbfed672ab450d2de1d80
     RDKit          3D

 27 30  0  0  0  0  0  0  0  0999 V2000
   29.1751  105.4506   10.0264 C   0  0  0  0  0  0  0  0  0  0  0  0
   23.0908  102.6999   11.4304 C   0  0  0  0  0  0  0  0  0  0  0  0
   30.3784  106.0247   10.3068 N   0  0  0  0  0  0  0  0  0  0  0  0
   24.4883  103.2471   11.5375 C   0  0  0  0  0  0  0  0  0  0  0  0
   29.2511  107.4037    8.9287 C   0  0  0  0  0  0  0  0  0  0  0  0
   25.4502  102.4049   11.1131 N   0  0  0  0  0  0  0  0  0  0  0  0
   30.4604  107.2457    9.6382 C   0  0  0  0  0  0  0  0  0  0  0  0
   28.7027  104.1502   10.5424 C   0  0  0  0  0  0  0  0  0  0  0  0
   21.9595  103.5367   11.6318 C   0  0  0  0  0  0  0  0  0  0  0  0
   22.9056  101.3240   11.1589 C   0  0  0  0  0  0  0  0  0  0  0  0
   24.6878  104.3799   11.9758 O   0  0  0  0  0  0  0  0  0  0  0  0
   26.8569  102.6069   11.0801 C   0  0  0  0  0  0  0  0  0  0  0  0
   27.3217  103.8491   10.5990 C   0  0  0  0  0  0  0  0  0  0  0  0
   20.6623  102.9668   11.5460 C   0  0  0  0  0  0  0  0  0  0  0  0
   21.6140  100.7754   11.0763 C   0  0  0  0  0  0  0  0  0  0  0  0
   20.4921  101.5982   11.2694 C   0  0  0  0  0  0  0  0  0  0  0  0
   21.4083   99.0953   10.7424 Cl  0  0  0  0  0  0  0  0  0  0  0  0
   22.1719  104.8780   11.8863 O   0  0  0  0  0  0  0  0  0  0  0  0
   29.6183  103.1727   10.9942 C   0  0  0  0  0  0  0  0  0  0  0  0
   29.1681  101.9362   11.4923 C   0  0  0  0  0  0  0  0  0  0  0  0
   28.9973  108.5258    8.1462 C   0  0  0  0  0  0  0  0  0  0  0  0
   31.4693  108.2029    9.5964 C   0  0  0  0  0  0  0  0  0  0  0  0
   27.7920  101.6518   11.5412 C   0  0  0  0  0  0  0  0  0  0  0  0
   21.0753  105.6740   12.3115 C   0  0  0  0  0  0  0  0  0  0  0  0
   31.2230  109.3454    8.8058 C   0  0  0  0  0  0  0  0  0  0  0  0
   30.0137  109.5033    8.0964 C   0  0  0  0  0  0  0  0  0  0  0  0
   28.4791  106.2729    9.1926 N   0  0  0  0  0  0  0  0  0  0  0  0
  1  3  1  0
  1  8  1  0
  1 27  2  0
  2  4  1  0
  2  9  2  0
  2 10  1  0
  3  7  1  0
  4  6  1  0
  4 11  2  0
  5 21  1  0
  5  7  2  0
  5 27  1  0
  6 12  1  0
  7 22  1  0
  8 13  2  0
  8 19  1  0
  9 14  1  0
  9 18  1  0
 10 15  2  0
 12 13  1  0
 12 23  2  0
 14 16  2  0
 15 16  1  0
 15 17  1  0
 18 24  1  0
 19 20  2  0
 20 23  1  0
 21 26  2  0
 22 25  2  0
 25 26  1  0
M  CHG  1  27   1
M  END
>  <CHROM.0>  (1) 
-60.62615539,-71.76438901,-64.27542657,67.40163185,64.79583894

>  <CHROM.1>  (1) 
157.52587830,-169.75229831,-44.48490619,-169.43151374,25.92656854,104.07654152
10.64686344,-0.62082719,-0.12298050,2.98352515

>  <Name>  (1) 
f59a5a01f7a29d4d5ecfc067207d01e6385a5eb78cafbfed672ab450d2de1d80

>  <RI>  (1) 
2.08844e+07

>  <Rbt.Current_Directory>  (1) 
/sysgen/workspace/users/bioinformatics/2111_DEHAAN_GASDERMIN/VS_SPECS

>  <Rbt.Executable>  (1) 
rbdock ($Id: //depot/dev/client3/rdock/2013.1/src/exe/rbdock.cxx#4 $)

>  <Rbt.Library>  (1) 
libRbt.so (2013.1, Build901 2013/11/27)

>  <Rbt.Parameter_File>  (1) 
/home/sruizcarmona/SOFT/GADI/rdock/rDock_2020.GADI/data/scripts/dock.prm

>  <Rbt.Receptor>  (1) 
gasd_rdock_free.prm

>  <SCORE>  (1) 
-38.2162

>  <SCORE.INTER>  (1) 
-30.6767

>  <SCORE.INTER.CONST>  (1) 
1

>  <SCORE.INTER.POLAR>  (1) 
-4.89981

>  <SCORE.INTER.REPUL>  (1) 
0

>  <SCORE.INTER.ROT>  (1) 
4

>  <SCORE.INTER.VDW>  (1) 
-23.4173

>  <SCORE.INTER.norm>  (1) 
-1.13617

>  <SCORE.INTRA>  (1) 
1.65212

>  <SCORE.INTRA.DIHEDRAL>  (1) 
0.352337

>  <SCORE.INTRA.DIHEDRAL.0>  (1) 
8.1513

>  <SCORE.INTRA.POLAR>  (1) 
0

>  <SCORE.INTRA.POLAR.0>  (1) 
0

>  <SCORE.INTRA.REPUL>  (1) 
0

>  <SCORE.INTRA.REPUL.0>  (1) 
0

>  <SCORE.INTRA.VDW>  (1) 
1.47595

>  <SCORE.INTRA.VDW.0>  (1) 
0.668692

>  <SCORE.INTRA.norm>  (1) 
0.0611895

>  <SCORE.RESTR>  (1) 
0

>  <SCORE.RESTR.CAVITY>  (1) 
0

>  <SCORE.RESTR.norm>  (1) 
0

>  <SCORE.SYSTEM>  (1) 
-9.19159

>  <SCORE.SYSTEM.CONST>  (1) 
0

>  <SCORE.SYSTEM.DIHEDRAL>  (1) 
1.14081

>  <SCORE.SYSTEM.POLAR>  (1) 
-2.45208

>  <SCORE.SYSTEM.VDW>  (1) 
-1.42492

>  <SCORE.SYSTEM.norm>  (1) 
-0.340429

>  <SCORE.heavy>  (1) 
27

>  <SCORE.norm>  (1) 
-1.41541

$$$$
3124c0f04366d48c5212722c1d81f796922bb49802593177c2323b7bba186438
     RDKit          3D

 32 35  0  0  0  0  0  0  0  0999 V2000
   25.3764  102.3233   10.9231 N   0  0  0  0  0  0  0  0  0  0  0  0
   24.4852  103.1889   11.4449 C   0  0  0  0  0  0  0  0  0  0  0  0
   25.0998  104.3155   11.8315 N   0  0  0  0  0  0  0  0  0  0  0  0
   26.5646  102.9457   10.9914 C   0  0  0  0  0  0  0  0  0  0  0  0
   26.4470  104.1602   11.5317 N   0  0  0  0  0  0  0  0  0  0  0  0
   25.1225  101.0131   10.4550 C   0  0  0  0  0  0  0  0  0  0  0  0
   30.1083  105.7223   10.4728 N   0  0  0  0  0  0  0  0  0  0  0  0
   28.0943  102.2436   10.4672 S   0  0  0  0  0  0  0  0  0  0  0  0
   24.2178  100.8102    9.3923 C   0  0  0  0  0  0  0  0  0  0  0  0
   30.3448  106.9790    9.8506 C   0  0  0  0  0  0  0  0  0  0  0  0
   31.2138  107.8853   10.5027 C   0  0  0  0  0  0  0  0  0  0  0  0
   29.1773  104.7942   10.1872 C   0  0  0  0  0  0  0  0  0  0  0  0
   31.5015  109.1358    9.9218 C   0  0  0  0  0  0  0  0  0  0  0  0
   23.9784   99.5130    8.8935 C   0  0  0  0  0  0  0  0  0  0  0  0
   23.0469  102.9793   11.5956 C   0  0  0  0  0  0  0  0  0  0  0  0
   25.7842   99.9102   11.0305 C   0  0  0  0  0  0  0  0  0  0  0  0
   24.6478   98.4063    9.4706 C   0  0  0  0  0  0  0  0  0  0  0  0
   20.2654  102.5486   11.8677 N   0  0  0  0  0  0  0  0  0  0  0  0
   28.3264  104.8957    9.3046 O   0  0  0  0  0  0  0  0  0  0  0  0
   29.7862  107.3388    8.5995 C   0  0  0  0  0  0  0  0  0  0  0  0
   25.5438   98.6131   10.5409 C   0  0  0  0  0  0  0  0  0  0  0  0
   29.1905  103.5554   11.0799 C   0  0  0  0  0  0  0  0  0  0  0  0
   30.9304  109.4913    8.6861 C   0  0  0  0  0  0  0  0  0  0  0  0
   31.9313  107.4869   12.0249 Cl  0  0  0  0  0  0  0  0  0  0  0  0
   30.0749  108.5913    8.0247 C   0  0  0  0  0  0  0  0  0  0  0  0
   31.2766  111.0289    7.9856 Cl  0  0  0  0  0  0  0  0  0  0  0  0
   23.0139   99.3344    7.7348 C   0  0  0  0  0  0  0  0  0  0  0  0
   20.7825  103.7951   11.8907 C   0  0  0  0  0  0  0  0  0  0  0  0
   21.1189  101.5143   11.7146 C   0  0  0  0  0  0  0  0  0  0  0  0
   22.5114  101.6743   11.5754 C   0  0  0  0  0  0  0  0  0  0  0  0
   22.1589  104.0642   11.7613 C   0  0  0  0  0  0  0  0  0  0  0  0
   24.4197   96.9959    8.9568 C   0  0  0  0  0  0  0  0  0  0  0  0
  1  2  1  0
  1  4  1  0
  1  6  1  0
  2  3  2  0
  2 15  1  0
  3  5  1  0
  4  5  2  0
  4  8  1  0
  6  9  2  0
  6 16  1  0
  7 12  1  0
  7 10  1  0
  8 22  1  0
  9 14  1  0
 10 11  2  0
 10 20  1  0
 11 13  1  0
 11 24  1  0
 12 22  1  0
 12 19  2  0
 13 23  2  0
 14 27  1  0
 14 17  2  0
 15 30  2  0
 15 31  1  0
 16 21  2  0
 17 21  1  0
 17 32  1  0
 18 29  2  0
 18 28  1  0
 20 25  2  0
 23 25  1  0
 23 26  1  0
 28 31  2  0
 29 30  1  0
M  END
>  <CHROM.0>  (1) 
-58.07599288,175.52285722,62.78319906,-64.99999624,64.27800357

>  <CHROM.1>  (1) 
60.41707142,19.67266737,-172.69843487,167.79461330,-76.80453357,-170.69081287
26.97856732,104.09231638,10.30278051,2.35524248,-0.22072688,-3.03863396

>  <Name>  (1) 
3124c0f04366d48c5212722c1d81f796922bb49802593177c2323b7bba186438

>  <RI>  (1) 
4.19911e+07

>  <Rbt.Current_Directory>  (1) 
/sysgen/workspace/users/bioinformatics/2111_DEHAAN_GASDERMIN/VS_SPECS

>  <Rbt.Executable>  (1) 
rbdock ($Id: //depot/dev/client3/rdock/2013.1/src/exe/rbdock.cxx#4 $)

>  <Rbt.Library>  (1) 
libRbt.so (2013.1, Build901 2013/11/27)

>  <Rbt.Parameter_File>  (1) 
/home/sruizcarmona/SOFT/GADI/rdock/rDock_2020.GADI/data/scripts/dock.prm

>  <Rbt.Receptor>  (1) 
gasd_rdock_free.prm

>  <SCORE>  (1) 
-28.5112

>  <SCORE.INTER>  (1) 
-25.3971

>  <SCORE.INTER.CONST>  (1) 
1

>  <SCORE.INTER.POLAR>  (1) 
-2.48161

>  <SCORE.INTER.REPUL>  (1) 
0

>  <SCORE.INTER.ROT>  (1) 
6

>  <SCORE.INTER.VDW>  (1) 
-28.3596

>  <SCORE.INTER.norm>  (1) 
-0.793659

>  <SCORE.INTRA>  (1) 
1.50823

>  <SCORE.INTRA.DIHEDRAL>  (1) 
-10.6011

>  <SCORE.INTRA.DIHEDRAL.0>  (1) 
23.6228

>  <SCORE.INTRA.POLAR>  (1) 
0

>  <SCORE.INTRA.POLAR.0>  (1) 
0

>  <SCORE.INTRA.REPUL>  (1) 
0

>  <SCORE.INTRA.REPUL.0>  (1) 
0

>  <SCORE.INTRA.VDW>  (1) 
6.80877

>  <SCORE.INTRA.VDW.0>  (1) 
-8.64048

>  <SCORE.INTRA.norm>  (1) 
0.0471322

>  <SCORE.RESTR>  (1) 
0

>  <SCORE.RESTR.CAVITY>  (1) 
0

>  <SCORE.RESTR.norm>  (1) 
0

>  <SCORE.SYSTEM>  (1) 
-4.62232

>  <SCORE.SYSTEM.CONST>  (1) 
0

>  <SCORE.SYSTEM.DIHEDRAL>  (1) 
0.376422

>  <SCORE.SYSTEM.POLAR>  (1) 
-1.25695

>  <SCORE.SYSTEM.REPUL>  (1) 
0.00382198

>  <SCORE.SYSTEM.VDW>  (1) 
-0.556019

>  <SCORE.SYSTEM.norm>  (1) 
-0.144447

>  <SCORE.heavy>  (1) 
32

>  <SCORE.norm>  (1) 
-0.890975

$$$$
